#------------------------------------------------------------------------------
#$Date: 2016-02-04 22:47:17 +0100 (Thu, 04 Feb 2016) $
#$Revision: 175909 $
#$URL: svn://www.crystallography.net/cod/cif/1/54/05/1540500.cif $
#------------------------------------------------------------------------------
#
# This file is available in the Crystallography Open Database (COD),
# http://www.crystallography.net/
#
# All data on this site have been placed in the public domain by the
# contributors.
#
data_1540500
loop_
_publ_author_name
'Kondoh, Azusa'
'Ota, Yusuke'
'Komuro, Takazumi'
'Egawa, Fuyuki'
'Kanomata, Kyohei'
'Terada, Masahiro'
_publ_section_title
;
 Chiral Br\/onsted acid-catalyzed enantioselective Friedel--Crafts
 reaction of 2-methoxyfuran with aliphatic ketimines generated in situ
;
_journal_issue                   2
_journal_name_full               'Chem. Sci.'
_journal_page_first              1057
_journal_paper_doi               10.1039/C5SC03175C
_journal_volume                  7
_journal_year                    2016
_chemical_absolute_configuration 'CHOOSE rm ad rmad syn or unk'
_chemical_formula_moiety         'C15 H14 N2 O3 S'
_chemical_formula_sum            'C15 H14 N2 O3 S'
_chemical_formula_weight         302.35
_space_group_crystal_system      orthorhombic
_space_group_IT_number           19
_space_group_name_Hall           'P 2ac 2ab'
_space_group_name_H-M_alt        'P 21 21 21'
_symmetry_space_group_name_Hall  'P 2ac 2ab'
_symmetry_space_group_name_H-M   'P 21 21 21'
_atom_sites_solution_hydrogens   geom
_atom_sites_solution_primary     direct
_atom_sites_solution_secondary   difmap
_audit_update_record
;
2015-06-08 deposited with the CCDC.
2015-11-03 downloaded from the CCDC.
;
_cell_angle_alpha                90.0000
_cell_angle_beta                 90.0000
_cell_angle_gamma                90.0000
_cell_formula_units_Z            4
_cell_length_a                   6.182(5)
_cell_length_b                   8.842(7)
_cell_length_c                   26.31(2)
_cell_measurement_reflns_used    5055
_cell_measurement_temperature    150
_cell_measurement_theta_max      32.70
_cell_measurement_theta_min      2.30
_cell_volume                     1438(2)
_computing_cell_refinement       'CrystalClear-SM Expert 2.0 r15'
_computing_data_collection
'CrystalClear-SM Expert 2.0 r15 (Rigaku, 2011)'
_computing_data_reduction        'CrystalClear-SM Expert 2.0 r15'
_computing_molecular_graphics    'CrystalStructure 4.1'
_computing_publication_material  'CrystalStructure 4.1 (Rigaku, 2014)'
_computing_structure_refinement  'SHELXL2013 (Sheldrick, 2008)'
_computing_structure_solution    'Il Milione (Burla, et al., 2007)'
_diffrn_ambient_temperature      150
_diffrn_detector_area_resol_mean 13.653
_diffrn_measured_fraction_theta_full 0.998
_diffrn_measured_fraction_theta_max 0.998
_diffrn_measurement_device_type  'Rigaku XtaLAB mini'
_diffrn_measurement_method       \w
_diffrn_radiation_type           'Mo K\a'
_diffrn_radiation_wavelength     0.71075
_diffrn_reflns_av_R_equivalents  0.0396
_diffrn_reflns_laue_measured_fraction_full 0.998
_diffrn_reflns_laue_measured_fraction_max 0.998
_diffrn_reflns_limit_h_max       8
_diffrn_reflns_limit_h_min       -8
_diffrn_reflns_limit_k_max       11
_diffrn_reflns_limit_k_min       -11
_diffrn_reflns_limit_l_max       34
_diffrn_reflns_limit_l_min       -34
_diffrn_reflns_number            12391
_diffrn_reflns_point_group_measured_fraction_full 0.999
_diffrn_reflns_point_group_measured_fraction_max 0.998
_diffrn_reflns_theta_full        25.242
_diffrn_reflns_theta_max         27.497
_diffrn_reflns_theta_min         3.097
_diffrn_standards_number         0
_exptl_absorpt_coefficient_mu    0.236
_exptl_absorpt_correction_T_max  0.954
_exptl_absorpt_correction_T_min  0.895
_exptl_absorpt_correction_type   numerical
_exptl_absorpt_process_details   'NUMABS (Rigaku, 1999)'
_exptl_crystal_colour            colorless
_exptl_crystal_density_diffrn    1.396
_exptl_crystal_density_method    'not measured'
_exptl_crystal_description       platelet
_exptl_crystal_F_000             632.00
_exptl_crystal_recrystallization_method 'Re-crystallisation from solvent: '
_exptl_crystal_size_max          0.400
_exptl_crystal_size_mid          0.200
_exptl_crystal_size_min          0.200
_refine_diff_density_max         0.17
_refine_diff_density_min         -0.19
_refine_ls_abs_structure_details
;
 Flack x determined using 1255 quotients [(I+)-(I-)]/[(I+)+(I-)]
 (Parsons and Flack (2004), Acta Cryst. A60, s61).
;
_refine_ls_abs_structure_Flack   0.05(4)
_refine_ls_extinction_method     none
_refine_ls_goodness_of_fit_ref   1.070
_refine_ls_hydrogen_treatment    constr
_refine_ls_number_parameters     190
_refine_ls_number_reflns         3275
_refine_ls_number_restraints     0
_refine_ls_R_factor_all          0.0322
_refine_ls_R_factor_gt           0.0308
_refine_ls_shift/su_max          0.001
_refine_ls_structure_factor_coef Fsqd
_refine_ls_weighting_details
'w = 1/[\s^2^(Fo^2^)+(0.0339P)^2^+0.1251P] where P=(Fo^2^+2Fc^2^)/3'
_refine_ls_weighting_scheme      calc
_refine_ls_wR_factor_gt          0.0748
_refine_ls_wR_factor_ref         0.0760
_reflns_number_gt                3164
_reflns_number_total             3275
_reflns_threshold_expression     F^2^>2.0\s(F^2^)
_cod_data_source_file            c5sc03175c2.cif
_cod_data_source_block           01
_cod_depositor_comments          'Adding full bibliography for 1540500.cif.'
_cod_database_code               1540500
_shelxl_res_file
;
TITL 01
CELL  0.71075 6.18200 8.84200 26.31000 90.00000 90.00000 90.00000
ZERR  4 0.00500 0.00700 0.02000 0.00000 0.00000 0.00000
LATT -1
SYMM .50+X, .50-Y,    -Z
SYMM    -X, .50+Y, .50-Z
SYMM .50-X,    -Y, .50+Z
SFAC C H N O S
UNIT 60 56 8 12 4
SHEL 6.790236 0.769625
L.S. 20
FMAP 2
PLAN -26
WPDB -2
HTAB
BOND $H
CONF
LIST 4
TEMP -123.0
ACTA
SIZE 0.400 0.200 0.200
WGHT    0.033900    0.125100
FVAR       0.71743
S1    5    0.695649   -0.265303    0.828386    11.00000    0.02523    0.02170 =
         0.02886   -0.00209    0.00237    0.00153
O1    4    0.222421    0.166231    0.822536    11.00000    0.02823    0.01710 =
         0.02981    0.00127   -0.00207   -0.00394
O2    4   -0.070510    0.220059    0.775293    11.00000    0.02875    0.03001 =
         0.03225    0.00408   -0.00513   -0.00536
O3    4    0.302171    0.078568    0.947600    11.00000    0.03720    0.02816 =
         0.03135   -0.00142    0.01076    0.00260
N16   3    0.469725   -0.106896    0.899276    11.00000    0.02247    0.01813 =
         0.02392    0.00144    0.00305   -0.00095
N19   3    0.647335    0.032233    0.843963    11.00000    0.02718    0.01861 =
         0.02908   -0.00012    0.00753   -0.00086
AFIX  43
H19   2    0.730188    0.056902    0.818059    11.00000   -1.20000
AFIX   0
C2    1    0.376678   -0.238998    0.922885    11.00000    0.02306    0.01744 =
         0.02056   -0.00066    0.00274   -0.00214
C4    1    0.542723    0.145011    0.876537    11.00000    0.02633    0.01781 =
         0.02609    0.00032    0.00227   -0.00133
C5    1    0.708899    0.239420    0.905968    11.00000    0.03070    0.02748 =
         0.03369   -0.00078   -0.00368   -0.00536
AFIX  33
H5A   2    0.819132    0.172448    0.920459    11.00000   -1.20000
H5B   2    0.635920    0.294383    0.933394    11.00000   -1.20000
H5C   2    0.777837    0.311759    0.882860    11.00000   -1.20000
AFIX   0
C6    1    0.606660   -0.110826    0.856801    11.00000    0.01692    0.02350 =
         0.02167    0.00135   -0.00210   -0.00184
C7    1    0.419799    0.040228    0.913189    11.00000    0.02363    0.02241 =
         0.02381    0.00094   -0.00039   -0.00151
C8    1    0.168467   -0.280973    0.909183    11.00000    0.02316    0.02525 =
         0.02476    0.00200   -0.00186    0.00121
AFIX  43
H8    2    0.088452   -0.222148    0.885530    11.00000   -1.20000
AFIX   0
C9    1    0.494531   -0.320783    0.958135    11.00000    0.02275    0.02490 =
         0.02543    0.00002   -0.00201   -0.00085
AFIX  43
H9    2    0.635508   -0.289084    0.967780    11.00000   -1.20000
AFIX   0
C10   1    0.176376    0.415390    0.810699    11.00000    0.03299    0.02009 =
         0.02927    0.00143    0.00144    0.00330
AFIX  43
H10   2    0.117801    0.508993    0.799528    11.00000   -1.20000
AFIX   0
C11   1    0.078628   -0.410137    0.930514    11.00000    0.02425    0.02547 =
         0.03475   -0.00311    0.00334   -0.00597
AFIX  43
H11   2   -0.063499   -0.440504    0.921327    11.00000   -1.20000
AFIX   0
C12   1    0.403299   -0.450189    0.979235    11.00000    0.03719    0.02206 =
         0.02436    0.00357    0.00054    0.00354
AFIX  43
H12   2    0.482708   -0.508085    1.003258    11.00000   -1.20000
AFIX   0
C13   1    0.364461    0.392626    0.841702    11.00000    0.03223    0.01824 =
         0.02993   -0.00144    0.00028   -0.00404
AFIX  43
H13   2    0.455187    0.469314    0.855308    11.00000   -1.20000
AFIX   0
C14   1    0.196248   -0.494890    0.965233    11.00000    0.03807    0.02162 =
         0.02833    0.00090    0.00946   -0.00418
AFIX  43
H14   2    0.134983   -0.583828    0.979487    11.00000   -1.20000
AFIX   0
C15   1   -0.191579    0.334299    0.748358    11.00000    0.03232    0.04201 =
         0.03450    0.00681   -0.00396    0.00418
AFIX  33
H15A  2   -0.257687    0.403916    0.772828    11.00000   -1.20000
H15B  2   -0.305102    0.285920    0.728071    11.00000   -1.20000
H15C  2   -0.094163    0.390636    0.725885    11.00000   -1.20000
AFIX   0
C17   1    0.100914    0.276172    0.800859    11.00000    0.02516    0.02384 =
         0.02298    0.00127    0.00222   -0.00017
C18   1    0.388628    0.242182    0.847954    11.00000    0.02430    0.01903 =
         0.02592   -0.00141    0.00059   -0.00352
HKLF 4
 
REM  01
REM R1 =  0.0308 for    3164 Fo > 4sig(Fo)  and  0.0322 for all    3275 data
REM    190 parameters refined using      0 restraints
 
END  
     
WGHT      0.0339      0.1251 

REM Instructions for potential hydrogen bonds
EQIV $1 x+1, y, z
HTAB N19 O2_$1
EQIV $2 x-1, y, z
HTAB C8 S1_$2
EQIV $3 x, y+1, z
HTAB C13 S1_$3
EQIV $4 -x, y+1/2, -z+3/2
HTAB C15 S1_$4

REM Highest difference peak  0.170,  deepest hole -0.193,  1-sigma level  0.037
Q1    1   0.8265 -0.2467  0.7930  11.00000  0.05    0.17
Q2    1   0.4567 -0.3911  0.9635  11.00000  0.05    0.15
Q3    1   0.4684  0.2005  0.8632  11.00000  0.05    0.14
Q4    1   0.3184 -0.4841  0.9658  11.00000  0.05    0.14
Q5    1   0.3994 -0.2480  0.9485  11.00000  0.05    0.14
Q6    1   0.4172 -0.1740  0.9104  11.00000  0.05    0.14
Q7    1   0.7917 -0.3186  0.9291  11.00000  0.05    0.14
Q8    1   0.2827 -0.2612  0.9204  11.00000  0.05    0.13
Q9    1   0.8043 -0.2490  0.8649  11.00000  0.05    0.13
Q10   1  -0.2995  0.2559  0.7489  11.00000  0.05    0.13
Q11   1   0.1643 -0.4827  0.9354  11.00000  0.05    0.13
Q12   1   0.3640  0.3120  0.8487  11.00000  0.05    0.13
Q13   1   0.7977 -0.1844  0.8025  11.00000  0.05    0.13
Q14   1   0.1020  0.5200  0.7804  11.00000  0.05    0.12
Q15   1   0.7069 -0.1622  0.8540  11.00000  0.05    0.12
Q16   1  -0.1485  0.3455  0.7207  11.00000  0.05    0.12
Q17   1   0.3341  0.2207  0.8411  11.00000  0.05    0.12
Q18   1   0.5380 -0.1153  0.8814  11.00000  0.05    0.12
Q19   1   0.1790  0.3440  0.7926  11.00000  0.05    0.12
Q20   1   0.1168 -0.3187  0.9292  11.00000  0.05    0.12
Q21   1   0.6189  0.1929  0.8942  11.00000  0.05    0.12
Q22   1   0.5723 -0.3435  0.8591  11.00000  0.05    0.11
Q23   1  -0.1438  0.4657  0.7612  11.00000  0.05    0.11
Q24   1   0.2896  0.6086  0.8283  11.00000  0.05    0.11
Q25   1   0.3873  0.5256  0.8372  11.00000  0.05    0.11
Q26   1   0.4405 -0.3074  0.9309  11.00000  0.05    0.11
;
_shelxl_hkl_file
;
   0   0   3    0.84    0.20
   0   0  -3    0.28    0.16
   0   0   3    1.27    0.30
   0   0  -3   11.18    2.50
   0   0   3    6.89    2.08
   0   0   4 3938.68   80.90
   0   0  -4 4241.41   87.13
   0   0  -4 3701.62   76.29
   0   0   4 3753.42   77.39
   0   0   5    1.91    0.34
   0   0  -5    1.40    0.90
   0   0  -5    2.41    0.83
   0   0   5    7.25    7.31
   0   0   6  289.54   12.59
   0   0  -6  277.72   12.10
   0   0  -6  275.30   12.24
   0   0   6  285.53   12.76
   0   0   7   -0.07    0.54
   0   0  -7    0.49    0.42
   0   0  -7   12.78    5.39
   0   0   7    0.01    1.72
   0   0  -8 3562.36   74.02
   0   0   8 3527.04   73.24
   0   0  -9   10.52    8.20
   0   0   9    2.65    2.62
   0   0 -10  551.69   12.67
   0   0  10  527.26   12.14
   0   0 -11    0.94    0.70
   0   0 -11    1.55    1.05
   0   0  11    0.60    2.39
   0   0 -12 2257.68   46.97
   0   0 -12 2309.84   49.15
   0   0  12 2310.54   49.88
   0   0 -13    4.93    3.50
   0   0  13    4.76    5.73
   0   0 -14  718.70   22.42
   0   0 -14  771.72   24.81
   0   0  14  720.89   23.30
   0   0 -15    4.88    5.09
   0   0 -16  779.79   22.51
   0   0  16  760.41   22.32
   0   0 -17    3.01    0.83
   0   0 -17    5.33    3.10
   0   0 -18    4.94    0.89
   0   0 -18    5.84    1.32
   0   0  18    6.32    1.92
   0   0 -19    0.57    0.27
   0   0 -19    0.98    0.94
   0   0  19    2.50    1.08
   0   0 -20   34.27    3.48
   0   0 -20   31.75    6.00
   0   0  20   35.63    7.11
   0   0 -21    0.21    0.41
   0   0 -21    4.77    3.48
   0   0  21    0.70    1.14
   0   0 -22   79.39    8.14
   0   0  22   71.41   14.85
   0   0 -23    2.31    1.85
   0   0  23    0.01    1.85
   0   0  24   61.04   12.44
   0   0  25    2.02    1.65
   0   0 -26   33.40    4.25
   0   0  26   31.38    6.23
   0   0 -27    3.58    1.30
   0   0  27   -0.86    1.51
   0   0 -28    5.06    1.34
   0   0  28    1.94    1.24
   0   0 -29    2.50    1.21
   0   0  29   -0.89    2.00
   0   0 -30    2.52    1.38
   0   0  30    1.76    1.47
   0   0 -31    1.07    1.24
   0   0  31    2.18    1.18
   0   0 -32    3.23    1.42
   0   0  32    3.34    1.64
   0   0 -33    2.84    1.58
   0   0  33   -0.68    2.04
   0   0 -34    2.11    1.28
   0   0  34    3.00    1.76
   0   0 -35    1.65    1.65
   0   0  35    1.98    1.22
   0   0 -36    1.03    1.27
   0   0  36    0.76    2.13
   0   0 -37    4.20    2.29
   0   0  37    3.58    2.56
   0   0  38   47.79   17.57
   0   0  39    1.42    2.60
   0  -1   0    2.56    0.45
   0   1   0    1.00    0.53
   0   1   0    1.21    0.20
   0  -1   0    0.65    0.28
   0  -1   0    0.33    0.20
   0  -1  -1  261.52   11.38
   0   1   1  256.15   11.14
   0   1  -1  216.81    9.46
   0  -1  -1  262.14   11.40
   0   1  -1  252.15   10.96
   0  -1   1  255.59   11.09
   0   1  -1  255.92   11.12
   0  -1   1  246.18   10.70
   0   1   1  256.64   11.14
   0  -1  -2 1017.92   21.19
   0   1   2 1032.24   21.47
   0   1  -2 1024.05   21.37
   0  -1  -2 1031.51   21.55
   0   1  -2 1014.51   21.09
   0  -1   2 1014.54   21.09
   0   1  -2 1051.04   21.98
   0  -1   2 1019.15   21.27
   0   1   2 1056.44   22.06
   0  -1  -3 1736.93   35.93
   0   1   3 1672.64   34.59
   0   1  -3 1799.05   37.32
   0  -1  -3 1650.20   34.35
   0   1  -3 1613.89   33.54
   0  -1   3 1617.31   33.52
   0  -1   3 1586.56   33.03
   0   1   3 1663.91   34.68
   0  -1  -4   18.19    1.24
   0   1   4   18.81    1.64
   0   1  -4   20.28    3.54
   0  -1  -4   15.26    3.02
   0  -1   4   19.33    3.12
   0  -1   4   18.73    3.48
   0   1   4   18.58    3.39
   0   1   5  980.48   20.75
   0   1  -5  973.09   20.62
   0   1  -5  994.05   21.15
   0  -1  -5  952.48   20.67
   0  -1   5  900.81   19.74
   0   1   5  927.10   20.24
   0   1   6 2562.75   52.93
   0   1  -6 2363.79   49.11
   0   1  -6 2329.14   48.37
   0  -1  -6 2569.18   53.59
   0  -1   6 2373.34   49.48
   0   1   6 2403.87   50.01
   0   1   7   17.66    1.51
   0   1  -7   18.49    3.49
   0   1  -7   19.08    3.53
   0  -1  -7   17.21    3.60
   0  -1   7   17.73    3.55
   0   1   7   17.97    3.18
   0   1   8  523.37   11.23
   0   1  -8  492.81   10.73
   0   1  -8  478.11   10.71
   0  -1  -8  499.63   12.38
   0  -1   8  471.37   10.80
   0   1   8  500.02   11.66
   0   1   9  667.01   14.23
   0   1  -9  622.79   13.82
   0  -1   9  656.41   14.78
   0   1   9  663.44   14.89
   0   1  10   89.42    5.00
   0   1 -10   97.28    6.72
   0   1 -10   91.28    4.56
   0  -1 -10   85.42   17.15
   0  -1  10   89.81    4.74
   0   1  10   92.69    5.54
   0   1  11  584.95   12.58
   0   1 -11  571.18   13.07
   0  -1 -11  572.12   13.57
   0  -1  11  589.14   13.65
   0   1  11  608.11   14.11
   0   1  12  389.28   16.98
   0   1 -12  387.97   17.06
   0   1 -12  401.04   17.98
   0  -1 -12  370.46   16.93
   0  -1  12  399.83   18.03
   0   1  12  394.11   17.79
   0   1  13   24.23    2.28
   0   1 -13   23.35    3.05
   0   1 -13   24.52    5.08
   0  -1 -13   23.88    4.26
   0  -1  13   23.92    5.52
   0   1  13   28.56    7.94
   0   1  14    0.29    0.17
   0   1 -14    2.62    0.53
   0   1 -14    3.03    0.61
   0  -1 -14    3.69    1.58
   0  -1  14    0.60    1.37
   0   1  15  328.34   10.77
   0   1 -15  325.61   10.69
   0  -1 -15  322.13   11.42
   0   1  15  340.61   11.91
   0   1  16  141.63    9.02
   0  -1 -16  154.70   10.42
   0  -1  16  176.75   11.79
   0   1  16  161.91   10.75
   0   1  17    3.77    0.99
   0   1 -17    7.74    1.52
   0  -1 -17    5.16    1.38
   0  -1  17    6.80    1.19
   0   1  17   12.10    2.31
   0   1  18   77.59    5.08
   0   1 -18   80.23    5.32
   0   1 -18   83.19    5.99
   0  -1 -18   85.19    6.26
   0  -1  18   83.08    6.34
   0   1  18   90.55    8.55
   0   1  19   65.77    5.18
   0   1 -19   67.71    5.54
   0   1 -19   78.01    6.14
   0  -1 -19   83.22   12.67
   0  -1  19   65.37    4.96
   0   1  19   95.03   13.61
   0   1 -20    0.50    0.45
   0   1 -20    0.45    0.96
   0  -1 -20    1.47    1.86
   0  -1  20    2.79    2.40
   0   1  20    0.49    1.62
   0   1 -21  132.78    6.00
   0   1 -21  137.30    9.09
   0   1  21  145.60    9.40
   0   1 -22   61.18    9.17
   0  -1 -22   59.01    5.64
   0  -1  22   47.72   11.42
   0   1  22   61.86    9.34
   0   1 -23  209.97   11.45
   0  -1 -23  207.96   12.36
   0   1  23  215.44   11.85
   0   1 -24  200.81   11.19
   0  -1 -24  192.19   14.55
   0  -1  24  204.91   11.67
   0   1  24  197.29   20.20
   0   1 -25    5.62    0.98
   0  -1 -25    8.94    3.77
   0  -1  25    8.38    2.12
   0   1  25    8.84    1.65
   0   1 -26   19.88    3.31
   0  -1 -26   22.31    4.31
   0  -1  26   23.15    4.43
   0   1  26   23.53    4.41
   0   1 -27   28.17    4.86
   0  -1 -27   25.58    4.70
   0  -1  27   19.50    5.23
   0   1  27   20.44    4.10
   0   1 -28    3.11    2.70
   0  -1 -28    8.59    3.09
   0  -1  28    2.92    1.37
   0   1  28    5.24    2.75
   0   1 -29  554.09   11.12
   0  -1  29  542.35   10.77
   0  -1 -30    9.96    3.43
   0  -1  30   -0.10    2.21
   0   1  30    3.54    3.08
   0   1 -31   99.61   14.76
   0  -1 -31   99.62   13.52
   0  -1  31   93.65   14.11
   0   1  31   96.23   10.19
   0   1 -32   51.85    8.20
   0  -1 -32   50.83    7.03
   0  -1  32   46.52    8.69
   0   1  32   47.38    8.63
   0   1 -33   83.35    8.29
   0  -1 -33   85.73   14.45
   0  -1  33   64.74   13.26
   0   1 -34    2.00    1.19
   0  -1 -34    2.54    1.61
   0  -1  34    3.48    1.74
   0   1 -35    7.34    3.37
   0  -1 -35    6.16    3.10
   0  -1  35    7.68    3.67
   0   1 -36    0.52    0.98
   0  -1 -36    1.26    1.05
   0  -1  36   -0.74    2.23
   0  -1 -37    1.25    1.16
   0  -1  37    0.73    1.82
   0  -1 -38    0.62    1.82
   0  -1  38    4.26    2.46
   0  -1  39   21.02    8.00
   0  -2   0 4070.82   84.40
   0  -2   0 4214.56   86.90
   0   2   1   22.20    4.59
   0   2  -1   15.22    2.85
   0  -2  -1   12.80    2.10
   0  -2   1   14.05    2.27
   0  -2   1   11.83    2.47
   0   2   1   12.32    1.92
   0   2   2 4532.86   93.58
   0   2  -2 4195.93   86.66
   0  -2  -2 4082.45   84.42
   0  -2   2 4152.96   85.73
   0  -2   2 4145.01   85.69
   0   2   2 4329.56   89.33
   0   2   3 2265.56   47.13
   0  -2  -3 2169.82   45.26
   0  -2   3 2128.77   44.48
   0  -2   3 2286.29   47.77
   0   2   3 2140.37   44.69
   0   2   4  472.49   10.56
   0   2  -4  486.38   10.83
   0  -2  -4  493.93   11.07
   0  -2   4  465.05   10.18
   0  -2   4  486.52   10.80
   0   2   4  479.65   10.60
   0   2   5  913.24   19.69
   0   2  -5  860.84   19.13
   0  -2  -5  898.81   19.44
   0  -2   5  885.89   18.83
   0  -2   5  850.13   18.65
   0   2   5  873.22   18.77
   0   2   6   63.76    3.20
   0   2  -6   60.02    4.44
   0  -2  -6   66.89    3.62
   0  -2   6   63.87    3.17
   0  -2   6   62.40    3.28
   0   2   6   64.83    3.35
   0   2   7 1450.75   30.44
   0   2  -7 1451.23   30.69
   0  -2  -7 1424.96   30.56
   0  -2   7 1420.16   29.90
   0  -2   7 1394.90   29.78
   0   2   7 1386.82   29.56
   0   2   8  315.74   13.98
   0   2  -8  315.17   14.00
   0  -2  -8  334.45   15.16
   0   2   8  314.31   14.10
   0   2   9   46.40    2.46
   0   2  -9   51.28    6.34
   0   2  -9   41.69    4.57
   0  -2  -9   46.74   10.00
   0  -2   9   39.42    3.16
   0   2   9   41.46    4.05
   0   2  10  184.02    8.42
   0   2 -10  163.38    7.59
   0  -2 -10  180.72    8.58
   0  -2  10  174.91    8.37
   0   2  10  184.11    8.65
   0   2  11   40.61    3.00
   0   2 -11   36.77    2.77
   0   2  11   41.77    6.23
   0   2  12  834.62   26.05
   0   2 -12  807.18   25.58
   0  -2  12  792.02   25.56
   0   2  12  858.71   27.91
   0   2  13   27.52    2.82
   0   2 -13   29.71    3.12
   0   2 -13   27.75    3.69
   0  -2  13   29.10    7.74
   0   2  13   29.69    5.19
   0   2  14  173.58   11.12
   0   2 -14  183.79   11.92
   0   2 -14  174.96   11.53
   0  -2 -14  164.72   11.02
   0  -2  14  180.24   12.88
   0   2  14  182.79   12.10
   0   2  15   83.76    5.48
   0   2 -15   87.10    6.17
   0   2 -15   98.28    6.74
   0  -2 -15   84.38    5.89
   0   2  15   91.21    6.41
   0   2  16    2.40    0.73
   0   2 -16    3.49    0.85
   0   2 -16    3.97    1.13
   0  -2 -16    2.64    1.50
   0  -2  16    2.85    1.66
   0   2  16    4.27    0.97
   0   2  17   26.26    2.76
   0   2 -17   26.01    3.38
   0   2 -17   30.61    5.09
   0  -2 -17   27.44    5.81
   0  -2  17   29.89    7.64
   0   2  17   33.48    6.59
   0   2  18  187.54   10.09
   0  -2 -18  184.89   10.60
   0   2  18  212.67   12.81
   0   2  19  461.04   24.19
   0   2 -19  494.36   26.27
   0   2 -19  497.83   26.82
   0  -2 -19  468.03   25.56
   0  -2  19  530.28   29.41
   0   2  19  515.73   28.41
   0   2 -20  280.61   11.37
   0  -2 -20  260.44   11.28
   0   2  20  294.54   12.52
   0   2 -21  426.08   21.31
   0   2 -21  366.46   18.82
   0  -2 -21  354.18   19.04
   0   2  21  377.48   19.36
   0   2 -22  115.15   13.97
   0   2 -22  122.78   10.06
   0  -2 -22  107.61    8.61
   0  -2  22  114.97   15.42
   0   2 -23    3.65    1.04
   0   2 -23    5.97    2.47
   0  -2 -23    4.95    2.86
   0  -2  23    5.31    2.05
   0   2 -24  211.96   11.73
   0  -2 -24  200.28   11.29
   0  -2  24  196.18   12.16
   0   2 -25  108.77   11.36
   0  -2 -25  106.02   17.71
   0   2 -26   92.62   10.48
   0  -2 -26   88.00   14.49
   0  -2  26   71.21   10.09
   0   2 -27   17.01    2.77
   0  -2 -27   19.19    3.11
   0  -2  27   24.91    3.93
   0   2 -28   24.58    4.70
   0  -2  28   27.05    5.25
   0   2  28   20.01    8.20
   0   2 -29    1.22    1.43
   0  -2  29   -2.35    2.07
   0   2  29    4.50    1.81
   0   2 -30   30.72    5.56
   0  -2 -30   32.90    8.03
   0  -2  30   25.91    5.70
   0   2  30   34.23    8.06
   0   2 -31    4.79    1.85
   0  -2 -31    3.92    2.38
   0  -2  31    2.56    1.95
   0   2 -32   94.71    8.95
   0  -2 -32   79.34   13.87
   0  -2  32  100.09   14.22
   0   2 -33   23.69    5.83
   0  -2 -33   28.12    7.04
   0  -2  33   27.80    6.49
   0   2 -34    5.15    2.27
   0  -2 -34    7.06    3.51
   0  -2  34   10.73    2.42
   0   2 -35   23.53    7.05
   0  -2 -35   21.42    6.27
   0  -2  35   25.54    9.33
   0  -2 -36    2.66    2.06
   0  -2  36    5.14    3.08
   0   2  36    3.15    2.02
   0  -2 -37    1.86    1.86
   0  -2  37   -0.01    2.33
   0   2  37    5.01    3.19
   0  -2 -38   95.62   23.95
   0  -2  38   96.81   24.06
   0   2  38   77.74   24.04
   0  -2  39    4.21    2.42
   0   3   0    2.13    0.70
   0  -3   0    1.34    0.69
   0  -3   0   -0.29    0.73
   0   3   1  387.89   17.19
   0   3  -1  388.47   17.56
   0  -3  -1  412.53   18.14
   0  -3   1  406.78   17.89
   0  -3   1  421.02    9.50
   0   3   2   29.03    1.87
   0   3  -2   25.59    1.67
   0  -3  -2   35.25    3.89
   0  -3   2   29.47    3.94
   0  -3   2   31.48    1.90
   0   3   2   28.85    3.10
   0   3   3  637.83   14.47
   0   3  -3  562.85   12.71
   0  -3  -3  585.95   13.30
   0  -3   3  594.11   13.14
   0   3   3  572.35   12.68
   0   3   4   44.96    2.65
   0   3  -4   29.50    1.84
   0  -3  -4   35.75    2.20
   0  -3   4   36.30    3.74
   0   3   4   39.91    5.27
   0   3   5  222.70   10.67
   0   3  -5  201.39    9.32
   0  -3  -5  204.21    9.40
   0  -3   5  197.25    9.30
   0   3   5  203.35    9.25
   0   3  -6    1.19    0.78
   0  -3  -6   -0.38    1.05
   0  -3   6    1.83    0.98
   0   3   7   23.26    1.63
   0   3  -7   29.53    5.70
   0  -3  -7   26.99    5.83
   0  -3   7   26.96    3.50
   0  -3   7   27.83    3.91
   0   3   7   30.22    4.20
   0   3   8   70.69    3.79
   0   3  -8   81.04    4.43
   0  -3  -8   68.11    3.93
   0   3   9 3737.74  229.48
   0  -3  -9 3683.91  114.04
   0  -3   9 3544.86  109.59
   0  -3 -10  775.73   25.61
   0   3  11  544.60   17.51
   0   3 -11  657.80   21.12
   0  -3 -11  579.43   19.21
   0  -3  11  605.19   19.94
   0   3  12   59.02    4.08
   0   3 -12   58.10    4.16
   0  -3 -12   82.26   12.33
   0  -3  12   67.24    6.75
   0   3  13   16.18    1.86
   0   3 -13   17.91    2.39
   0   3 -13   24.92    4.11
   0  -3 -13   23.35    4.93
   0  -3  13   19.40    3.94
   0   3  14   15.36    1.42
   0   3 -14   17.36    2.80
   0   3 -14   18.75    3.81
   0  -3 -14   21.09    4.46
   0  -3  14   16.32    2.70
   0   3  15  194.21    6.26
   0   3 -15  195.28    6.46
   0   3 -15  205.27    9.31
   0  -3 -15  205.30    7.53
   0  -3  15  209.38    7.52
   0   3  16    3.13    1.23
   0   3 -16    5.24    0.95
   0   3 -16    3.96    0.95
   0  -3 -16   10.30    6.82
   0  -3  16    6.01    2.78
   0   3  17  625.84   32.89
   0   3 -17  650.69   34.98
   0   3 -17  611.23   32.93
   0   3  17  668.69   35.82
   0   3  18  277.34   15.20
   0   3  18  303.78   17.33
   0   3  19    9.99    2.39
   0   3 -19   15.85    2.52
   0  -3 -19   14.04    2.89
   0  -3  19   11.49    2.15
   0   3  19   14.20    2.59
   0   3  20   16.40    1.92
   0   3 -20   16.17    2.44
   0   3 -20   23.20    3.34
   0  -3 -20   20.46    3.62
   0  -3  20   21.56    3.91
   0   3  20   20.88    3.51
   0   3 -21   85.61    8.29
   0   3 -21   89.74    9.37
   0  -3 -21   92.97    5.12
   0  -3  21   87.95   15.39
   0   3 -22    2.67    1.06
   0   3 -22    1.84    0.92
   0  -3 -22    4.48    2.62
   0  -3  22    3.65    1.57
   0   3 -23  550.25   26.86
   0   3 -23  569.92   28.48
   0   3 -24    5.63    1.05
   0  -3 -24   14.80    3.19
   0   3 -25  155.33   19.32
   0  -3 -25  144.19   10.30
   0  -3  25  154.75   24.22
   0   3 -26  193.65   22.03
   0  -3 -26  190.15   25.15
   0  -3  26  164.52   27.72
   0   3 -27   86.89    8.60
   0  -3 -27   89.05   13.09
   0  -3  27   80.87   10.63
   0   3  27   79.89    9.82
   0   3 -28    5.34    1.80
   0  -3 -28    1.76    1.36
   0  -3  28    7.40    2.84
   0   3  28    2.86    1.11
   0   3 -29    4.18    1.30
   0  -3 -29    2.48    1.43
   0  -3  29    3.23    1.37
   0   3  29    3.63    1.68
   0   3 -30    1.58    1.08
   0  -3 -30    3.85    2.99
   0  -3  30    2.77    1.56
   0   3  30    3.49    1.71
   0   3 -31   43.36    7.53
   0  -3 -31   41.44    7.20
   0  -3  31   51.91    7.44
   0   3  31   39.14    7.16
   0   3 -32    7.48    2.97
   0  -3 -32    3.49    1.94
   0  -3  32   10.21    3.77
   0   3  32    6.81    2.63
   0   3 -33    2.14    1.27
   0  -3 -33    0.95    1.25
   0  -3  33    1.78    2.42
   0   3  33    1.87    1.40
   0  -3 -34    1.44    1.30
   0  -3  34    8.02    4.47
   0   3  34    1.20    1.53
   0  -3 -35   12.13    4.34
   0  -3  35   19.72    5.38
   0   3  35   19.03    5.74
   0  -3 -36    1.32    1.52
   0  -3  36    1.19    1.66
   0   3  36   -0.95    1.96
   0  -3 -37   13.05    3.78
   0  -3  37   18.15    5.03
   0  -3 -38    8.29    3.56
   0  -3  38    4.22    2.14
   0   4   0 1331.05   29.89
   0  -4   0 1426.80   30.54
   0   4  -1  441.01   10.90
   0  -4  -1  400.52   17.72
   0  -4   1  444.87   10.35
   0   4   2   32.50    2.44
   0  -4   2   35.48    2.35
   0   4   3  157.40    8.02
   0   4  -3  154.34    7.47
   0  -4   3  170.70    8.02
   0   4   3  155.35    8.25
   0   4   4   20.72    5.72
   0   4  -4   17.49    3.98
   0  -4  -4   14.85    2.83
   0  -4   4   12.95    3.01
   0   4   4   18.18    2.34
   0   4   5 1281.93   40.14
   0   4  -5 1130.37   35.79
   0  -4  -5 1187.47   37.31
   0  -4   5 1224.43   38.39
   0   4   6  162.48   11.62
   0   4  -6  165.98   10.96
   0  -4  -6  163.11   10.75
   0  -4   6  165.20   10.71
   0  -4   6  161.58   10.64
   0   4   7   61.93    4.67
   0   4  -7   59.39    4.37
   0  -4  -7   63.73    4.73
   0  -4   7   58.35    4.08
   0  -4   7   58.42    5.16
   0   4   8  505.25   16.58
   0   4  -8  509.58   16.85
   0  -4  -8  435.69   14.74
   0  -4   8  459.17   14.85
   0  -4   8  493.36   16.21
   0   4   9   69.42    6.71
   0   4  -9   60.12    5.11
   0  -4  -9   54.51    4.23
   0  -4   9   65.83    7.89
   0  -4   9   61.31    4.59
   0   4  10   43.50    3.33
   0   4 -10   41.48    3.37
   0  -4 -10   47.58    4.29
   0  -4  10   45.56    3.83
   0  -4  10   42.09    3.65
   0   4  11   68.95    5.72
   0  -4 -11   81.00    7.05
   0  -4  11   75.79    5.22
   0  -4  11   88.12    9.65
   0   4  12  581.70   16.87
   0  -4 -12  537.09   16.44
   0  -4  12  570.92   17.34
   0   4  13  197.89    6.51
   0   4 -13  233.54    7.63
   0  -4 -13  181.63    9.27
   0  -4  13  203.97    7.25
   0   4  14    3.78    1.15
   0   4 -14    2.57    0.90
   0   4 -14    2.99    0.79
   0  -4 -14    2.66    1.01
   0  -4  14    1.70    0.88
   0   4  14    3.39    1.01
   0   4  15   61.66    3.83
   0   4 -15   65.43    9.57
   0   4 -15   71.19    4.78
   0  -4 -15   76.37   13.83
   0  -4  15   67.92   12.41
   0   4  15   74.97    6.08
   0   4  16  731.96   39.75
   0   4 -16  769.12   68.40
   0   4 -16  731.26   38.65
   0  -4 -16  729.59   39.12
   0  -4  16  799.07   71.16
   0   4  16  764.66   68.11
   0   4  17  262.91   11.10
   0   4 -17  291.37   12.12
   0   4 -17  272.33   11.76
   0  -4 -17  253.68   11.91
   0  -4  17  275.81   12.06
   0   4  17  270.51   11.50
   0   4  18    3.06    0.92
   0   4 -18    3.43    0.90
   0   4 -18    3.30    1.31
   0  -4 -18    2.18    0.91
   0  -4  18    5.39    1.46
   0   4  18    6.21    1.60
   0   4  19   32.36    3.74
   0   4 -19   33.95    4.47
   0  -4 -19   32.35    5.37
   0  -4  19   28.44    5.54
   0   4  19   31.70    4.09
   0   4  20  174.75    9.19
   0   4 -20  194.08   10.40
   0   4 -20  206.46   11.31
   0  -4 -20  191.07   10.96
   0   4  20  212.40   11.82
   0   4 -21  415.48   21.05
   0  -4 -21  416.01   21.50
   0   4  21  418.66   21.31
   0   4 -22    6.22    1.94
   0  -4 -22    5.31    2.10
   0  -4  22    7.70    2.04
   0   4  22    6.95    1.96
   0   4 -23   60.12   10.98
   0   4 -23   81.31   10.18
   0  -4 -23   83.62   13.76
   0  -4  23   81.49   13.48
   0   4  23   73.74   10.72
   0   4 -24  150.91   10.18
   0   4 -24  143.19   11.03
   0  -4 -24  154.30   18.58
   0  -4  24  138.67   22.09
   0   4  24  138.50   18.50
   0   4 -25    2.00    0.85
   0   4 -25    2.40    0.89
   0  -4 -25    2.58    0.97
   0  -4  25    2.45    1.00
   0   4  25    2.55    2.00
   0   4 -26    1.82    0.88
   0  -4  26    2.80    1.65
   0   4  26    1.04    1.20
   0   4 -27   12.39    2.97
   0  -4  27   13.71    4.08
   0   4  27   14.79    5.39
   0   4 -28   11.16    2.52
   0  -4 -28    3.12    2.08
   0  -4  28   12.74    2.87
   0   4  28    9.07    2.32
   0   4 -29    3.34    1.01
   0  -4 -29   -0.05    2.02
   0  -4  29    5.91    1.90
   0   4  29    5.33    2.10
   0   4 -30   15.58    4.56
   0  -4 -30   18.48    5.27
   0  -4  30   14.11    4.21
   0   4  30   14.50    4.90
   0   4 -31   26.75    6.39
   0  -4 -31   21.26    5.13
   0  -4  31   29.67    6.27
   0   4  31   19.43    5.29
   0  -4 -32   20.36    5.32
   0  -4  32   28.02    6.10
   0   4  32   19.69    5.08
   0  -4 -33    6.10    3.41
   0  -4  33    8.20    3.55
   0   4  33    6.11    3.08
   0  -4 -34   35.23   10.93
   0  -4  34   40.58    9.01
   0   4  34   32.77    9.52
   0  -4 -35   22.59    8.47
   0  -4  35   33.93    9.31
   0   4  35   19.04    8.28
   0  -4 -36   11.21    4.43
   0  -4  36   18.36    7.45
   0  -4 -37    5.10    2.84
   0  -4  37    3.53    5.22
   0  -4  38   21.91    7.33
   0   5   0    1.41    0.95
   0  -5   0   -0.14    0.92
   0  -5   0    1.04    0.71
   0   5   1   17.70    1.90
   0   5  -1   19.26    3.87
   0  -5   1   20.06    3.60
   0  -5   1   16.17    3.50
   0   5   2  104.42    7.22
   0   5  -2   99.47    6.94
   0  -5   2  103.20    6.99
   0  -5  -2  104.25    7.00
   0  -5   2  102.86    7.63
   0   5  -3   40.19    3.30
   0  -5   3   43.90    4.11
   0  -5  -3   48.61    4.02
   0  -5   3   46.11    6.08
   0   5   4  503.92   16.66
   0   5  -4  506.79   16.76
   0  -5  -4  503.86   16.63
   0  -5   4  505.11   16.50
   0  -5   4  462.07   15.30
   0   5   4  490.05   15.98
   0   5   5   80.75    5.79
   0   5  -5   86.03    7.10
   0  -5   5   73.39    5.19
   0  -5   5   73.32    6.34
   0   5   5   74.12    5.26
   0   5   6    3.68    0.89
   0   5  -6   -0.74    1.60
   0  -5   6    1.07    0.89
   0  -5   6    2.48    1.14
   0   5   6    1.72    0.77
   0   5   7  165.23   11.34
   0   5  -7  156.62   10.42
   0  -5   7  144.60    9.38
   0  -5   7  144.81    9.60
   0   5   7  158.14   10.36
   0   5   8  123.79    8.37
   0   5  -8  111.02    7.83
   0  -5  -8  128.04    9.07
   0  -5   8  118.60    7.85
   0  -5   8  104.75    8.73
   0   5   8  134.89   14.42
   0   5   9  205.62    7.03
   0   5  -9  209.43    7.22
   0  -5  -9  204.52    7.23
   0  -5   9  201.43    6.57
   0  -5   9  201.46    6.93
   0   5   9  223.34    7.58
   0   5  10   74.01    5.37
   0   5 -10   77.94    5.71
   0  -5 -10  101.05    7.25
   0  -5  10   96.37    9.19
   0  -5  10   92.16    6.50
   0   5  10   87.81    6.18
   0   5  11  664.16   35.45
   0  -5 -11  739.07   39.38
   0  -5  11  659.36   34.76
   0  -5  11  614.26   32.76
   0   5  11  679.07   36.15
   0   5  12  205.54   11.57
   0  -5 -12  208.32   12.10
   0  -5  12  219.27   12.09
   0   5  12  228.80   19.31
   0   5  13   31.39    2.30
   0  -5 -13   42.48    6.13
   0  -5  13   39.69    3.86
   0   5  13   42.56    5.00
   0   5  14  156.08    8.00
   0   5 -14  164.91    7.60
   0   5 -14  188.29    8.70
   0  -5 -14  157.28    7.75
   0  -5  14  181.83   16.87
   0   5  14  176.73   14.92
   0   5  15   38.46    3.87
   0   5 -15   45.49    8.02
   0   5 -15   37.14    7.20
   0  -5 -15   51.02    8.39
   0  -5  15   56.46    8.27
   0   5  15   43.87    6.95
   0   5  16   88.90    5.53
   0   5 -16   93.75    4.69
   0   5 -16   90.27    4.66
   0  -5 -16  101.04   16.11
   0  -5  16   95.61   12.32
   0   5  16   98.74    9.69
   0   5  17  612.80   30.24
   0   5 -17  649.19   32.30
   0   5 -17  594.07   30.01
   0  -5 -17  650.29   32.55
   0  -5  17  638.12   31.96
   0   5  17  669.01   33.43
   0   5  18  190.89   10.36
   0   5 -18  225.00   11.99
   0   5 -18  229.06   12.11
   0  -5 -18  249.65   41.37
   0  -5  18  252.85   13.75
   0   5  18  233.91   26.57
   0   5  19  372.83   18.72
   0   5 -19  395.62   21.40
   0  -5 -19  373.36   19.49
   0   5  19  382.49   19.58
   0   5  20   30.55    6.28
   0  -5 -20   20.28    4.98
   0   5  20   26.60    3.75
   0   5 -21  864.68   65.77
   0  -5 -21  847.96   64.67
   0  -5  21  935.41  107.41
   0   5  21  884.23  101.48
   0   5 -22    7.83    3.08
   0  -5 -22    1.73    1.54
   0   5  22    8.23    2.60
   0   5 -23  169.14   18.32
   0  -5 -23  154.41   16.27
   0  -5  23  172.94   23.75
   0   5  23  154.34   24.90
   0   5 -24   69.12   11.30
   0   5 -24   88.18    7.38
   0  -5 -24   82.49    4.42
   0  -5  24   99.84   13.58
   0   5  24   87.51   12.00
   0   5 -25   19.32    6.07
   0   5 -25   29.55    4.68
   0  -5 -25   24.98    4.26
   0  -5  25   28.74    5.53
   0   5  25   26.74    5.14
   0   5 -26    9.68    2.37
   0  -5 -26   16.26    3.88
   0  -5  26   11.44    3.28
   0   5  26    7.58    2.20
   0   5 -27   36.47    6.61
   0  -5 -27   47.86    8.66
   0  -5  27   48.14    9.19
   0   5  27   33.67    9.22
   0   5 -28  102.40   15.11
   0  -5 -28  132.00   17.63
   0  -5  28  117.09   12.51
   0   5  28  100.56   17.95
   0  -5 -29  139.82   21.32
   0  -5  29  140.97   19.85
   0  -5 -30   48.60   10.60
   0  -5  30   64.66   13.54
   0  -5 -31   42.68   12.92
   0  -5  31   43.46    9.08
   0  -5 -32    1.93    1.59
   0  -5  32   -1.33    2.06
   0  -5 -33    7.87    3.96
   0  -5  33   10.91    3.08
   0   5  33    6.48    3.84
   0  -5 -34   22.34    8.98
   0  -5  34   27.29    8.69
   0  -5 -35   10.80    4.59
   0  -5  35   10.21    2.76
   0  -5 -36   25.55    8.47
   0  -5  36   38.07    9.71
   0   6   0 1814.47   52.14
   0  -6   0 1725.20   47.68
   0  -6   0 1651.99   45.94
   0   6   1 1143.63   33.99
   0  -6  -1 1216.38   34.09
   0  -6   1 1252.67   35.19
   0  -6  -1 1205.30   33.70
   0  -6   1 1187.70   34.01
   0  -6  -2   12.65    2.59
   0  -6   2   10.94    1.77
   0  -6   2   11.27    1.76
   0   6  -3  231.63    8.23
   0  -6  -3  212.76    8.17
   0  -6   3  209.19    6.97
   0  -6  -3  209.38    6.90
   0  -6   3  190.66    6.53
   0   6  -4  360.54   11.45
   0  -6  -4  408.63   12.64
   0  -6   4  406.71   12.25
   0  -6  -4  395.72   13.50
   0  -6   4  411.32   12.47
   0   6   5   54.45   10.39
   0   6  -5   51.11    5.91
   0  -6  -5   45.52    5.11
   0  -6   5   41.20    4.58
   0  -6   5   41.83    6.98
   0   6   6    2.01    1.18
   0   6  -6    2.85    1.24
   0  -6   6    1.22    1.27
   0  -6   6    1.19    0.73
   0   6   6    0.54    0.79
   0   6   7  130.18    7.83
   0   6  -7  112.17    9.26
   0  -6   7  115.20    6.66
   0   6   7  110.20    5.93
   0   6   8  532.56   29.67
   0   6  -8  591.55   31.79
   0  -6   8  625.57   33.38
   0   6   8  553.52   29.58
   0   6   9   30.96    5.78
   0   6  -9   31.87    6.88
   0  -6   9   30.80    7.77
   0   6   9   31.62    4.99
   0   6  10   36.20    4.45
   0   6 -10   40.63    6.78
   0  -6 -10   35.76    7.13
   0  -6  10   29.59    6.18
   0  -6  10   27.87    6.04
   0   6  10   33.74    5.25
   0   6  11  183.81    8.31
   0   6 -11  170.57    8.01
   0  -6  11  178.00    7.88
   0  -6  11  184.48    8.53
   0   6  11  193.91   16.46
   0   6  12  339.46   14.02
   0  -6  12  394.49   15.72
   0  -6  12  382.81   15.79
   0   6  12  390.90   16.00
   0   6  13  524.58   26.11
   0  -6  13  557.70   27.64
   0  -6  13  584.86   29.18
   0   6  13  559.42   27.87
   0   6  14   96.73    4.71
   0  -6 -14  102.81    8.74
   0   6  14  101.64   10.64
   0   6  15  281.35   14.32
   0   6 -15  304.27   15.93
   0  -6 -15  294.94   15.68
   0  -6  15  289.20   16.88
   0   6  15  286.24   14.86
   0   6  16   38.82    8.16
   0   6 -16   40.76    7.62
   0   6 -16   40.13    8.90
   0  -6 -16   41.84    7.36
   0   6  16   44.09    9.05
   0   6  17  474.79   23.90
   0   6 -17  470.42   24.05
   0  -6 -17  467.44   23.92
   0  -6  17  434.35   22.10
   0   6  17  467.25   23.55
   0   6  18   62.80    9.10
   0  -6 -18   77.51    9.82
   0  -6  18   76.74   15.27
   0   6  18   71.54    9.52
   0   6  19    2.42    0.96
   0   6 -19    3.04    0.90
   0   6 -19    4.62    1.48
   0  -6 -19    2.80    1.23
   0  -6  19    3.16    1.05
   0   6  19    2.96    1.53
   0   6  20    0.09    0.46
   0   6 -20    0.91    0.43
   0  -6 -20   -0.52    2.08
   0  -6  20   -0.75    1.75
   0   6  20   -1.41    1.53
   0   6 -21   10.32    2.44
   0   6 -21   10.57    2.05
   0  -6 -21   14.28    3.34
   0  -6  21   12.65    3.33
   0   6 -22   -0.08    1.43
   0   6 -22    1.25    0.47
   0  -6 -22    1.89    1.48
   0   6 -23   39.97    8.79
   0   6 -23   48.24    5.06
   0  -6 -23   52.50    7.65
   0  -6  23   57.47    8.48
   0   6 -24   35.10   10.65
   0   6 -24   49.22    6.55
   0  -6 -24   55.96    9.50
   0  -6  24   59.02    8.53
   0   6 -25   19.55    5.22
   0  -6 -25   27.22    5.88
   0  -6  25   22.06    4.93
   0   6  25   22.52    4.69
   0  -6 -26   31.94    5.62
   0  -6  26   27.07    4.45
   0   6  26   28.43    4.89
   0  -6 -27    6.02    2.95
   0  -6  27    7.04    2.68
   0   6  27    2.52    1.24
   0  -6 -28   22.86    5.51
   0  -6  28   25.00    5.07
   0   6  28   18.36    5.17
   0  -6 -29    3.90    2.45
   0  -6  29    4.91    2.15
   0   6  29    4.34    2.43
   0  -6 -30    6.61    3.27
   0  -6  30    8.31    3.83
   0   6  30    3.04    1.75
   0  -6 -31    5.74    3.50
   0  -6  31    8.58    2.52
   0  -6 -32   32.08    8.25
   0  -6  32   34.77    7.55
   0  -6 -33    2.52    2.09
   0  -6  33    4.70    2.59
   0  -6 -34    1.18    2.28
   0  -6  34    3.30    4.91
   0  -6 -35    0.51    2.69
   0  -6  35    1.15    1.97
   0   7   0    3.20    2.95
   0  -7   0    1.02    1.16
   0   7   1  127.39   11.14
   0   7  -1  118.30    7.80
   0  -7  -1  125.66    6.15
   0  -7   1  131.27    8.64
   0  -7   1  116.12    5.57
   0   7   2  226.87   11.60
   0  -7  -2  269.85   11.60
   0  -7   2  233.14   11.97
   0  -7  -3  624.98   24.78
   0  -7   3  618.66   24.29
   0   7   4  417.62   17.15
   0  -7  -4  461.63   18.71
   0  -7  -4  408.96   17.83
   0  -7   4  443.84   17.96
   0   7   5   94.76    7.25
   0   7  -5  132.60    7.16
   0  -7  -5   84.56    8.83
   0  -7   5   86.87    9.32
   0   7   6   31.22    6.34
   0   7  -6   33.14    6.51
   0  -7   6   26.08    5.13
   0  -7  -6   32.62    5.87
   0  -7   6   26.49    5.85
   0   7   7   -0.02    0.91
   0   7  -7    2.29    1.15
   0  -7  -7    0.61    0.92
   0  -7  -7    3.25    2.52
   0  -7   7    1.25    0.66
   0   7   8   48.79    8.86
   0   7  -8   43.43    8.55
   0  -7  -8   45.08    8.71
   0  -7   8   35.43    6.97
   0  -7   8   47.72    7.18
   0   7   9  151.14   12.86
   0   7  -9  146.97    8.73
   0  -7  -9  163.28    9.38
   0  -7   9  147.69   13.22
   0  -7   9  155.02   15.17
   0   7  10  266.53   14.07
   0   7 -10  272.15   14.64
   0  -7 -10  270.64   15.22
   0  -7  10  268.86   13.86
   0  -7  10  292.69   16.21
   0   7  11  496.89   24.69
   0  -7 -11  530.07   26.82
   0  -7  11  528.17   25.95
   0  -7  11  508.82   25.36
   0   7  12  290.84   14.93
   0  -7  12  342.05   17.33
   0  -7  12  314.60   24.16
   0   7  13  115.55    6.66
   0  -7  13  117.36    6.72
   0  -7  13  133.65   14.48
   0   7  14   -0.66    1.05
   0  -7  14   -0.20    1.02
   0  -7  14    1.62    1.50
   0   7  14    0.36    0.75
   0   7  15   29.63    4.65
   0   7 -15   26.88    4.88
   0  -7 -15   22.35    3.27
   0  -7  15   29.80    4.52
   0   7  15   21.95    4.78
   0   7  16    1.95    0.89
   0   7 -16    1.14    1.08
   0   7 -16   -0.71    1.17
   0  -7 -16    2.36    1.95
   0  -7  16   -1.00    1.54
   0   7  16   -0.03    1.19
   0   7  17  111.35   10.69
   0   7 -17  116.54    8.47
   0   7 -17  104.19    9.97
   0  -7  17  137.45   13.35
   0   7  17  117.03   11.99
   0   7  18  150.10   15.43
   0   7 -18  158.60   17.19
   0   7 -18  140.19   16.14
   0  -7  18  176.43   20.28
   0   7  18  128.61   18.50
   0   7  19   41.41    9.60
   0   7 -19   42.97    7.32
   0   7 -19   43.11    7.77
   0   7  19   44.66   11.39
   0   7  20    9.19    2.35
   0   7 -20   10.93    2.41
   0  -7 -20    9.60    2.45
   0  -7  20   12.15    2.73
   0   7  20    8.87    2.36
   0  -7 -21   58.69   12.12
   0  -7  21   76.80   14.45
   0   7  21   56.67   12.18
   0   7 -22   13.73    3.52
   0  -7 -22   18.04    4.80
   0  -7  22   19.10    5.38
   0   7  22    4.59    1.71
   0   7 -23  102.85   20.98
   0  -7 -23  140.05   14.24
   0  -7  23  148.38   18.06
   0   7  23  105.79   23.61
   0   7 -24    1.87    0.96
   0  -7 -24    3.23    2.22
   0  -7  24    1.96    1.47
   0   7  24    0.15    1.01
   0   7 -25   24.47    7.10
   0  -7 -25   30.45    7.77
   0  -7  25   32.43    6.92
   0   7  25   26.75    6.73
   0  -7 -26   13.43    3.77
   0  -7  26   20.67    4.27
   0   7  26   16.99    3.81
   0  -7 -27    1.71    1.89
   0   7  27    0.43    1.30
   0  -7 -28   41.98   10.99
   0  -7  28   58.42   11.53
   0  -7 -29  127.33   22.65
   0  -7 -30    2.94    1.99
   0  -7  30    8.99    2.85
   0  -7 -31   20.52    9.32
   0  -7  31   26.09    7.59
   0  -7 -32    2.99    4.68
   0  -7  32    1.74    2.82
   0  -7 -33    5.15    2.44
   0  -7  33    4.27    1.97
   0   8   0  278.90   15.36
   0  -8   0  299.93   16.00
   0  -8   0  300.20   15.32
   0   8   1   17.17    3.81
   0   8  -1   21.16    4.00
   0  -8   1   13.90    3.63
   0   8   2   64.72    8.17
   0   8  -2   91.10   12.48
   0  -8   2   68.72   10.32
   0   8   3   46.66    9.20
   0   8  -3   62.06   12.41
   0  -8   3   42.72    7.20
   0   8   4  360.40   18.61
   0  -8  -4  370.12   18.89
   0  -8   4  355.89   19.37
   0  -8   4  364.76   18.43
   0   8   5  131.59    7.71
   0   8  -5  148.53   14.88
   0  -8   5  152.31    8.74
   0  -8   5  153.40    8.96
   0   8   6   79.60    9.32
   0   8  -6   85.43    6.53
   0  -8   6   75.44   10.89
   0  -8  -6   73.47    9.35
   0  -8   6   86.71    5.67
   0   8   7   19.67    4.19
   0   8  -7   15.26    3.07
   0  -8  -7   14.23    4.58
   0  -8   7   14.49    2.32
   0  -8  -7   18.89    2.99
   0  -8   7   19.39    3.13
   0   8   8    2.04    0.83
   0   8  -8    1.08    1.06
   0  -8  -8    1.36    0.83
   0  -8   8    1.02    0.88
   0  -8  -8    1.80    0.86
   0  -8   8    1.57    0.76
   0   8   9    0.13    0.88
   0   8  -9    2.38    1.24
   0  -8  -9   -1.57    1.57
   0  -8  -9    5.44    1.41
   0  -8   9    2.30    1.02
   0   8  10   -1.18    1.42
   0   8 -10    0.81    1.00
   0  -8 -10    3.95    1.63
   0  -8  10    0.73    0.56
   0  -8 -10   -1.61    3.77
   0  -8  10   -0.51    1.39
   0   8  11  183.31   16.89
   0   8 -11  177.61   12.20
   0  -8  11  164.50   11.04
   0  -8  11  168.06   15.40
   0   8  11  155.08   17.80
   0   8  12  107.46   10.60
   0   8 -12  109.14    8.51
   0  -8  12  106.82    7.35
   0  -8  12  101.28    7.66
   0   8  12  113.66    7.96
   0   8  13    0.98    0.71
   0  -8 -13   -0.11    1.80
   0  -8  13    2.65    1.16
   0  -8  13    2.52    1.17
   0   8  13    1.94    1.47
   0   8  14    2.29    1.42
   0  -8 -14    0.78    1.80
   0  -8  14    0.72    1.88
   0   8  14    1.12    0.79
   0   8  15    6.76    1.48
   0  -8 -15   12.97    3.51
   0  -8  15   14.07    3.32
   0   8  15   10.94    2.51
   0   8  16  101.00    7.68
   0   8 -16   97.01   18.24
   0  -8 -16  102.35   18.79
   0   8  16   89.56   13.89
   0   8  17   53.88   11.39
   0   8 -17   51.07    7.17
   0  -8 -17   45.69   10.49
   0   8  17   47.62    6.59
   0   8  18    7.80    2.48
   0   8 -18    7.48    2.61
   0  -8 -18   10.25    2.82
   0   8  18    9.45    2.84
   0   8  19   83.17   16.86
   0   8 -19   94.57   21.33
   0  -8  19  116.63   13.66
   0   8  19   85.86   15.71
   0   8 -20   11.11    2.58
   0  -8  20   10.18    3.26
   0   8  20    7.98    2.18
   0  -8 -21    8.86    3.52
   0  -8  21   10.30    2.66
   0   8  21    7.53    2.31
   0   8 -22    4.18    1.25
   0  -8 -22    1.92    1.40
   0  -8  22    5.18    1.86
   0   8  22    4.38    1.56
   0   8 -23    3.42    1.61
   0  -8 -23    4.42    1.89
   0  -8  23    4.57    1.81
   0   8 -24    9.03    4.09
   0  -8  24   15.89    3.36
   0  -8  25   69.01   12.67
   0  -8 -26    1.94    1.45
   0  -8  26    4.36    2.38
   0  -8 -27   37.31   12.23
   0  -8  27   45.41   10.65
   0  -8 -28   11.75    4.60
   0  -8  28   18.29    6.98
   0  -8 -29    0.22    1.78
   0  -8  29   -2.33    1.84
   0  -8 -30   22.02    7.94
   0  -8  30   27.20    6.88
   0  -8 -31    8.15    3.81
   0  -8 -32    2.21    3.56
   0   9   0    2.06    0.99
   0  -9   0    0.71    1.24
   0  -9   0    1.79    1.30
   0   9   1    9.01    2.20
   0   9  -1    4.55    2.07
   0  -9  -1    1.96    1.04
   0  -9   1    2.53    1.29
   0  -9   1    3.35    1.30
   0   9   2  152.85   10.68
   0   9  -2  177.72   12.65
   0  -9   2  133.90   18.21
   0  -9   2  157.78   12.26
   0   9   3    5.18    2.58
   0   9  -3    3.75    2.34
   0  -9  -3    3.56    1.89
   0  -9   3    0.94    0.83
   0  -9   3    1.58    1.87
   0   9   4  222.90   14.87
   0   9  -4  221.62   21.97
   0  -9   4  248.63   16.13
   0  -9   4  241.51   17.77
   0   9   5  230.67   23.78
   0   9  -5  228.86   26.82
   0  -9   5  222.33   23.27
   0  -9   5  230.91   23.76
   0   9   6   38.51    7.12
   0   9  -6   41.19   10.33
   0  -9   6   27.57    7.22
   0  -9   6   36.49    6.59
   0   9   7   18.06    2.90
   0   9  -7   15.06    3.87
   0  -9   7   10.40    2.75
   0  -9   7   14.52    2.67
   0   9   8  110.85   12.82
   0   9  -8  124.67   16.54
   0  -9  -8  101.21   16.65
   0  -9   8  129.66   19.16
   0   9   9   98.27   15.43
   0   9  10  435.05   10.87
   0   9 -10  464.33   11.38
   0   9  11   39.09    6.21
   0   9 -11   39.99    6.90
   0  -9 -11   40.41    3.22
   0  -9 -11   41.96    5.78
   0   9  12   56.90    4.28
   0   9 -12   61.36   11.01
   0  -9 -12   56.97    7.45
   0   9  13   25.96    5.79
   0  -9 -13   34.49    5.92
   0   9  14    3.23    1.07
   0   9 -14    3.23    2.00
   0  -9 -14   -0.37    1.85
   0  -9  14    3.25    1.10
   0   9  15    3.92    1.59
   0   9  15    3.45    1.29
   0   9  16   98.17   10.39
   0   9 -16   76.79   16.96
   0  -9 -16   94.68   15.85
   0  -9  16   90.97   11.81
   0   9  17  101.37   11.14
   0  -9 -17  101.52   21.39
   0   9  18   14.35    3.84
   0   9 -18   14.82    6.06
   0  -9 -18   13.23    4.13
   0   9 -19   22.09    6.63
   0  -9 -19   22.05    6.96
   0  -9  19   24.92    5.57
   0   9 -20    3.04    1.40
   0  -9 -20    1.29    1.20
   0  -9  20    4.24    1.97
   0  -9 -21   11.87    3.51
   0  -9  21   13.91    3.81
   0   9 -22   75.69   22.94
   0  -9 -22   99.39   26.06
   0   9 -23   10.43    3.27
   0  -9 -23   11.95    3.52
   0  -9  23   13.17    5.45
   0  -9 -24   -0.42    1.47
   0  -9  24   -0.55    1.84
   0  -9 -25   13.75    5.27
   0  -9  25   20.45    6.30
   0  -9  26   65.32   17.79
   0  10   0   73.05   15.92
   0 -10   0   56.13    9.80
   0 -10   0   62.28    9.75
   0  10   1   97.80   19.81
   0  10  -1   87.11   10.02
   0 -10  -1   76.07   15.28
   0 -10  -1   90.57   13.55
   0 -10   1   87.15    9.56
   0  10   2   26.40    6.09
   0  10  -2   18.89    4.74
   0 -10  -2   15.32    5.33
   0 -10  -2   20.15    4.73
   0 -10   2   17.43    3.46
   0  10   3   39.47    7.10
   0  10  -3   28.63    8.02
   0 -10  -3   24.91    6.16
   0  10   4   30.28    6.47
   0 -10  -4   19.13    6.15
   0  10   5  103.21   11.01
   0  10  -5   95.88   11.36
   0 -10  -5   80.72   16.16
   0 -10   5   88.96    9.91
   0  10   6   33.63    6.73
   0  10  -6   35.30    8.21
   0 -10  -6   31.54    6.23
   0 -10   6   33.67    6.35
   0  10   7   -1.47    1.91
   0  10  -7    1.31    1.11
   0 -10  -7    1.57    1.58
   0 -10   7    1.64    0.58
   0  10   8    5.97    1.74
   0  10  -8    0.82    2.40
   0 -10  -8    1.57    0.82
   0 -10   8    0.22    0.78
   0  10   9   -1.45    1.72
   0  10  -9   -0.79    2.12
   0 -10  -9   -0.48    1.63
   0 -10   9    1.19    0.73
   0  10  10    5.44    2.04
   0  10 -10    1.50    1.87
   0 -10 -10    5.11    1.98
   0 -10  10    2.06    0.69
   0  10  11   19.53    5.71
   0  10 -11   20.54    6.64
   0 -10  11   16.95    5.19
   0  10  12  109.15   23.81
   0 -10 -12  106.11   23.97
   0  10  13  218.87   77.06
   0  10  14    4.11    2.36
   0 -10 -14    7.78    2.61
   0  10  15   13.92    6.02
   0 -10  15   17.52    5.05
   0  10  16    5.98    2.58
   0  10 -16    4.83    2.58
   0  10 -17   17.92    5.59
   0 -10 -17   23.01    6.78
   0 -10  17   26.24    5.78
   0  10 -18   -1.35    2.15
   0 -10 -18   -2.10    1.97
   0 -10  18    0.98    0.80
   0  10 -19   15.83    4.75
   0 -10 -19   15.73    4.53
   0  10 -20   51.45   16.52
   0 -10 -20   59.93   18.73
   0 -10 -21   18.11    7.42
   0 -10 -22    1.35    1.58
   0 -10 -23    1.77    1.56
   0  11   0    2.30    1.64
   0  11   1   12.04    5.68
   0  11  -1   12.49    3.25
   0  11   2    5.20    2.33
   0  11  -2    7.76    3.02
   0  11   3    1.66    1.00
   0  11  -3    4.59    2.08
   0  11   4   91.99    7.79
   0  11  -4   85.01   19.84
   0  11   5   35.13    8.88
   0  11  -5   31.22    7.28
   0  11   6    4.33    2.41
   0  11  -6    5.02    2.37
   0  11   7    0.53    1.51
   0  11  -7    3.55    1.66
   0  11   8   13.30    4.79
   0  11  -8   18.46    5.19
   0  11   9   20.52    5.23
   0  11  -9   23.13    7.09
   0  11  10   26.54    8.70
   0  11 -10   28.74    9.05
   0  11  11    0.97    0.99
   0  11 -11    4.84    2.69
   0  11  12   58.43   20.94
   0  11 -12   64.47   17.59
   0  11  13   42.17   13.75
   0  11 -13   41.26   13.32
   0  11 -15    2.57    1.77
   0  11 -17    5.38    2.79
   0  11 -18    9.79    5.66
   0  11 -19    2.23    2.70
   0  12   0   57.04   18.65
   0  12   1  139.93   27.43
   0  12  -1  147.74   29.62
   0  12   2    1.47    1.32
   0  12  -2    4.48    3.05
   0  12   3   10.87    4.29
   0  12  -3   13.69    4.13
   0  12   4   -1.03    2.39
   0  12  -4    1.24    2.22
   0  12   5  145.80   25.77
   0  12  -5  172.67   77.26
   0  12   6    6.70    4.18
   0  12  -6   16.79    5.05
   0  12   7   -0.41    2.16
   0  12  -7   -0.69    2.64
   0  12   8  103.93   21.06
   0  12  -8  112.31   21.54
   0  12   9    4.75    2.84
   0  12  -9    7.42    4.01
   0  12  10   13.48   19.81
   0  12 -10   14.53    6.18
   0  12 -11    7.16    3.31
   0  12 -12    4.75    3.09
   0  12 -13   43.99   19.03
   0  12 -15    3.11    4.77
   0  13   0   -0.14    1.73
   0  13   1   -1.42    2.32
   0  13  -1    1.98    3.35
   0  13   2   29.94   10.75
   0  13  -2   24.03    9.33
   0  13   3    3.20    4.96
   0  13  -3    8.34    3.56
   0  13   4   28.74   12.25
   0  13  -4   26.83   11.81
   0  13  -5    2.79    4.61
   0  13  -6    1.21    2.21
   0  13  -7   15.54    6.84
   0  13  -8    1.43    2.50
   0  13  -9    3.26    4.82
  -1   0   0    0.63    0.33
   1   0   0   -0.57    0.45
  -1   0   0    0.51    0.42
   1   0   0    0.25    0.19
  -1   0   0    0.17    0.31
  -1   0  -1  959.38   20.41
  -1   0   1  955.48   20.05
   1   0   1  955.77   20.12
  -1   0  -1  946.93   19.84
  -1   0   1  988.29   20.76
   1   0   1  925.64   19.45
  -1   0   1  958.37   20.14
   1   0   1  905.11   18.96
  -1   0  -2  646.50   55.22
   1   0  -2  634.42   14.10
  -1   0   2  662.18   14.11
  -1   0  -2  652.71   13.85
  -1   0   2  685.53   14.83
   1   0   2  633.11   13.63
  -1   0   2  669.01   14.31
  -1   0  -3 7983.56  498.15
   1   0  -3 7886.12  492.50
  -1   0   3 8699.13  542.26
  -1   0  -3 8009.02  499.29
  -1   0   3 7939.34  495.03
   1   0   3 8057.26  502.47
  -1   0   3 7900.92  492.83
   1   0  -4 2362.45   49.84
  -1   0  -4 2413.09   50.33
  -1   0   4 2472.54   51.74
   1   0   4 2513.63   52.24
  -1   0   4 2339.07   48.66
   1   0  -5 2526.23   52.03
   1   0  -5 2356.85   50.31
  -1   0  -5 2559.63   53.28
   1   0   5 2389.81   49.67
  -1   0   5 2494.05   52.32
  -1   0  -6 2769.97   57.70
   1   0  -6 2894.54   60.80
  -1   0  -6 2828.61   58.71
   1   0   6 2801.32   58.29
  -1   0   6 2860.79   59.52
  -1   0  -7  280.19   13.07
   1   0  -7  173.28   20.29
  -1   0  -8    6.64    3.37
   1   0  -8   10.43    2.24
  -1   0  -8   12.51    2.71
   1   0   8   10.61    2.45
  -1   0   8   12.33    2.54
   1   0  -9 1158.86   23.84
  -1   0  -9 1156.56   24.75
   1   0  -9 1101.52   22.70
   1   0  -9 1128.32   24.68
  -1   0  -9 1197.10   25.79
   1   0   9 1145.84   24.76
  -1   0   9 1186.91   25.70
   1   0 -10   21.68    4.37
  -1   0 -10   24.41    5.52
   1   0  10   22.18    5.30
  -1   0  10   25.97    4.77
   1   0 -11  291.06   13.30
   1   0  11  299.87   13.76
  -1   0  11  280.95   12.86
   1   0 -12  160.42   10.71
  -1   0 -12  148.27   10.11
   1   0  12  158.19   10.54
  -1   0  12  149.87    9.96
  -1   0 -13  356.80   11.98
   1   0  13  387.25   13.03
  -1   0  13  370.08   15.41
  -1   0 -14  342.57   11.46
  -1   0 -14  314.64   10.74
   1   0  14  394.62   13.47
  -1   0  14  339.94   11.71
  -1   0 -15   84.53   13.52
   1   0 -15   86.83    6.37
  -1   0 -15   77.07    5.46
  -1   0  15   86.36    8.17
  -1   0 -16  262.98    8.42
   1   0 -16  279.04    9.38
  -1   0 -16  262.14    9.71
  -1   0  16  276.54   10.98
   1   0 -17  275.67    9.35
  -1   0 -17  277.22    9.62
  -1   0  17  275.65    9.80
  -1   0 -18   13.62    2.70
   1   0 -18   15.74    2.89
  -1   0 -18   16.07    3.01
   1   0  18   13.64    3.31
  -1   0  18   15.90    2.87
   1   0 -19   61.08   10.77
  -1   0 -19   52.49    3.44
   1   0  19   58.97    5.67
  -1   0  19   73.58    8.97
  -1   0 -20  196.13    8.46
   1   0 -20  195.36   11.47
  -1   0 -20  180.50   13.27
   1   0  20  186.71    8.61
  -1   0  20  196.59    9.03
  -1   0 -21    7.56    2.70
   1   0 -21    8.93    2.11
  -1   0 -21   10.68    3.37
   1   0  21   10.81    2.56
  -1   0  21   13.87    3.76
  -1   0 -22  181.09   14.18
   1   0 -22  185.49   11.25
  -1   0 -22  187.36   10.51
   1   0  22  172.74    9.73
  -1   0  22  191.91   11.54
  -1   0 -23    4.80    1.07
   1   0 -23    7.86    2.03
  -1   0 -23    8.09    2.63
   1   0  23    2.24    1.58
  -1   0  23    6.75    3.02
  -1   0 -24   91.20   12.50
   1   0 -24  104.83   17.72
  -1   0 -24  107.58    6.68
   1   0  24  108.13    9.08
  -1   0  24  129.88   17.87
   1   0 -25   76.74   11.88
  -1   0 -25   76.30   13.07
   1   0  25   55.88    8.98
  -1   0  25   66.19   11.00
   1   0 -26    3.61    2.39
  -1   0 -26    2.20    1.98
   1   0  26    0.83    2.18
  -1   0  26    1.85    1.79
   1   0 -27   10.31    1.89
  -1   0 -27   10.62    2.12
   1   0  27    8.27    2.63
  -1   0  27    5.48    2.58
   1   0 -28  107.68   12.76
  -1   0 -28  105.95    7.54
  -1   0  28  107.68   16.31
   1   0 -29   15.45    3.13
  -1   0 -29   10.79    2.39
   1   0  29    7.64    2.08
  -1   0  29    9.54    1.95
   1   0 -30   46.22    8.26
  -1   0 -30   41.28    5.81
  -1   0  30   42.64    8.54
   1   0 -31    2.06    1.08
  -1   0 -31   -1.90    2.10
  -1   0  31    6.03    1.93
   1   0 -32   18.33    5.74
  -1   0 -32   13.75    4.58
  -1   0  32   11.72    3.60
   1   0 -33   15.81    3.53
  -1   0 -33   12.81    3.30
   1   0  33   13.70    3.28
  -1   0  33    9.96    4.34
   1   0 -34   22.03    4.42
  -1   0 -34   23.48    6.05
   1   0  34   20.44    5.56
  -1   0  34   19.07    5.36
   1   0 -35    3.81    2.11
  -1   0 -35   -0.07    1.04
   1   0  35    1.18    1.08
  -1   0  35   -1.17    2.56
   1   0 -36   41.32   12.16
  -1   0 -36   32.33    9.66
  -1   0  36   39.69   10.51
   1   0 -37   39.81   12.11
  -1   0  37   40.36   12.29
   1   0 -38   -0.20    2.33
  -1   0  38   -0.01    1.79
  -1   0  39    0.70    2.07
   1   1   0  821.01   17.65
  -1   1   0  799.29   17.93
  -1  -1   0  784.65   16.96
   1  -1   0  804.67   16.88
   1   1   0  770.11   15.94
  -1  -1   0  792.00   16.43
  -1   1   0  804.89   17.70
  -1   1  -1 2203.09   45.33
  -1  -1   1 2267.22   46.77
  -1   1  -1 2352.48   49.23
   1  -1  -1 2245.11   46.74
  -1  -1   1 2384.91   49.82
   1   1   1 2300.86   47.24
   1   1   1 2288.70   47.01
  -1   1   1 2324.44   48.96
   1   1  -1 2243.02   46.83
   1  -1   1 2175.09   45.52
   1   1  -1 2137.11   44.01
  -1  -1  -1 2202.44   45.97
   1  -1   1 2217.77   45.64
  -1   1   1 2249.28   47.29
   1   1   2  139.54    8.52
  -1  -1   2  148.16    7.59
   1   1   2  113.03    5.19
  -1   1  -2  120.83   19.82
   1  -1  -2  134.06    6.48
  -1  -1   2  107.17    4.97
  -1   1  -2  115.78    5.09
  -1   1   2   86.30   12.34
   1  -1   2  117.04    5.13
   1  -1   2  124.94    6.36
  -1  -1  -2  108.76    4.82
   1   1  -2  146.02    6.81
   1   1  -2  106.65    5.57
  -1  -1  -2  126.20    8.15
  -1   1   2  136.10    7.14
   1   1   3 1457.85   30.96
  -1  -1   3 1363.22   29.19
  -1  -1   3 1348.63   28.66
  -1   1  -3 1347.44   28.66
   1  -1  -3 1381.98   29.15
   1   1   3 1400.86   29.04
  -1   1  -3 1355.58   28.01
  -1  -1  -3 1362.94   28.93
  -1   1   3 1348.67   28.16
   1  -1   3 1340.75   29.04
  -1  -1  -3 1371.95   28.51
   1   1  -3 1365.73   28.91
   1  -1   3 1391.59   28.72
  -1   1   3 1400.39   30.02
   1   1   4  497.08   11.37
  -1  -1   4  483.52   10.88
  -1  -1   4  495.09   10.99
  -1   1  -4  495.26   11.79
   1  -1  -4  477.19   10.74
  -1   1  -4  476.20   10.09
   1   1   4  487.81   10.66
  -1   1   4  414.92  100.98
   1  -1   4  483.52   10.30
   1  -1   4  473.13   10.58
  -1  -1  -4  474.33   11.24
   1   1  -4  493.06   10.74
  -1   1   4  454.11   10.33
   1  -1  -5 7593.08  473.53
  -1  -1   5 7492.27  467.26
  -1   1  -5 7684.57  479.29
  -1  -1   5 7224.55  148.92
  -1   1  -5 7400.65  461.35
  -1  -1  -5 7251.66  149.45
   1   1  -5 7169.09  147.39
   1  -1   5 7250.19  149.49
  -1   1   5 7572.39  472.18
  -1   1   5 7015.59  144.61
  -1  -1   6 3747.19   77.85
   1  -1  -6 3816.74   83.15
  -1   1  -6 3818.98   80.05
  -1  -1   6 3676.21   76.24
  -1   1  -6 3766.23   77.72
   1   1   6 3735.59   95.07
  -1   1   6 3552.08   75.05
   1   1  -6 3716.30   76.75
   1  -1   6 3719.10   77.23
  -1  -1  -6 3720.61   77.47
  -1  -1  -6 3363.48   74.01
  -1   1   6 3662.08   76.58
   1  -1  -710751.72  670.87
  -1   1  -7 9961.08  621.25
  -1  -1   710179.14  634.73
  -1  -1   7 9745.47  607.72
  -1   1  -7 9690.02  604.10
  -1  -1  -7 9281.76  580.30
  -1   1   7 9729.38  606.51
   1  -1   710404.41  648.80
  -1  -1  -710310.35  642.91
  -1   1   7 9300.99  580.00
  -1   1  -8  109.41    5.38
   1   1   8  110.07   23.34
  -1  -1   8  108.61   35.69
   1  -1  -8  103.90    5.71
  -1   1  -8  114.29    5.52
  -1  -1   8  113.25    7.25
  -1  -1  -8  128.48    6.48
   1  -1   8  112.26    6.82
  -1   1   8  106.88    4.68
  -1  -1  -8  116.82   10.18
  -1   1  -9    3.75    0.61
  -1  -1   9    3.27    1.22
   1  -1  -9    3.87    1.06
  -1   1  -9    3.27    0.65
   1   1   9    3.49    0.86
   1   1  -9    7.06    1.39
  -1  -1  -9    0.69    2.78
   1  -1   9    5.14    1.12
  -1  -1  -9    2.60    1.38
  -1   1   9    2.34    1.01
   1   1  10   48.11    2.81
  -1   1 -10   50.09    4.18
  -1  -1  10   44.71    2.95
   1  -1 -10   51.93    3.14
  -1   1 -10   49.33    2.84
   1   1 -10   47.24    2.88
   1  -1  10   51.78    3.30
   1   1 -10   52.17    2.55
  -1  -1 -10   51.01    3.04
  -1   1  10   49.41    3.04
   1   1  11  385.82   17.35
  -1  -1  11  372.07   16.72
   1  -1 -11  394.72   17.75
  -1   1 -11  381.76   16.98
   1   1 -11  373.47   16.80
  -1  -1 -11  398.38   18.77
   1  -1  11  392.41   17.64
   1   1 -11  390.95   17.05
  -1  -1 -11  367.90   16.32
  -1   1  11  387.96   17.53
  -1   1 -12  124.84    8.29
   1  -1 -12  134.62    9.07
  -1  -1  12  120.50    8.15
   1   1 -12  127.02    8.55
  -1  -1 -12  135.71    9.18
   1  -1  12  140.17    9.46
   1   1 -12  130.44    8.33
  -1   1  12  129.02   10.40
   1   1  13   80.92    6.21
  -1  -1  13   73.60    5.98
   1  -1 -13   90.55   12.84
  -1   1 -13   86.48    6.00
   1   1 -13   81.29    6.30
  -1  -1 -13   86.14    6.28
   1  -1  13   76.58    5.59
   1   1 -13   76.41    5.02
  -1  -1 -13   73.57    5.17
  -1   1  13   86.64    6.34
  -1   1 -14   93.16    8.32
  -1  -1  14   88.02    7.68
   1  -1 -14   89.99    6.54
  -1   1 -14   95.65    7.01
   1   1  14   92.16    7.24
   1   1 -14   95.01    6.14
   1   1 -14   94.68    6.74
  -1  -1 -14   92.51    7.19
   1  -1  14  104.24    7.46
  -1  -1 -14   86.19    5.84
  -1   1  14   93.40    7.31
  -1   1 -15  513.74   14.94
   1  -1 -15  582.57   17.48
  -1   1 -15  565.03   16.39
  -1  -1  15  585.25   17.64
  -1  -1 -15  552.17   15.78
  -1  -1 -15  606.27   18.87
  -1   1  15  590.53   23.43
  -1   1 -16  342.79   10.39
   1  -1 -16  331.18   27.73
  -1   1 -16  315.42   10.08
  -1  -1  16  325.07   10.46
  -1  -1 -16  315.18    9.48
  -1  -1 -16  333.24   10.62
  -1   1  16  334.47   10.71
  -1  -1  17  127.93   11.24
  -1   1 -17  132.03    9.18
   1  -1 -17  149.94   10.48
  -1   1 -17  130.46    9.24
  -1  -1 -17  133.63   14.63
  -1  -1 -17  128.38    8.98
   1  -1  17  134.96   12.38
   1   1 -17  124.46    7.85
  -1   1  17  138.70   10.72
  -1   1 -18  162.84    9.14
   1  -1 -18  173.68   10.33
  -1   1 -18  162.16    9.53
  -1  -1  18  171.47   10.19
   1   1 -18  170.21   10.06
  -1  -1 -18  163.24    9.74
   1  -1  18  161.18    9.58
  -1   1  18  167.79    9.79
   1   1  19  257.75   14.05
   1  -1 -19  294.47   16.60
  -1   1 -19  275.68   17.07
   1   1 -19  298.43   16.70
  -1  -1 -19  286.51   16.27
   1  -1  19  297.25   16.88
  -1   1  19  306.13   17.71
   1   1  20   23.82    5.44
  -1   1 -20   26.44    5.33
   1  -1 -20   38.12    7.04
  -1   1 -20   31.27    5.68
  -1  -1  20   32.63    6.01
  -1  -1 -20   34.64    7.05
   1  -1  20   31.32    7.05
  -1   1  20   37.51    6.93
   1   1  21   60.96    6.45
  -1   1 -21   59.64    7.07
   1  -1 -21   69.85   11.96
  -1   1 -21   65.49    7.07
  -1  -1  21   69.17   14.33
   1   1 -21   65.83    7.76
  -1  -1 -21   64.47    6.51
   1  -1  21   64.51   13.73
  -1   1  21   77.25   13.20
   1   1  22   87.87    4.26
  -1   1 -22   97.95    7.72
   1  -1 -22  112.31   16.49
  -1   1 -22  103.43    4.90
  -1  -1  22  111.06   12.14
   1   1 -22  107.88    5.40
  -1  -1 -22  121.03    8.96
   1  -1  22   98.67    9.15
  -1   1  22  118.92   17.00
   1   1  23    0.33    0.88
  -1   1 -23    0.90    0.73
   1  -1 -23    0.85    1.25
  -1   1 -23   -0.70    1.82
  -1  -1  23    1.05    0.97
   1   1 -23   -0.19    1.90
  -1  -1 -23    3.24    2.18
   1  -1  23    0.68    1.08
  -1   1  23    3.64    2.04
   1   1  24   57.70    7.43
  -1   1 -24   68.70    9.34
  -1  -1  24   87.96   12.17
   1  -1 -24   76.56   12.71
  -1   1 -24   81.72    6.20
   1   1  24   76.78   10.66
   1   1 -24   84.61   11.57
   1  -1  24   65.59   14.81
  -1  -1 -24   76.81    9.25
  -1   1  24   80.41   15.12
  -1   1 -25   30.60    6.61
   1  -1 -25   43.79    6.34
  -1   1 -25   46.27    7.63
   1   1  25   45.12    9.93
  -1  -1  25   54.13    7.73
   1   1 -25   47.87    8.13
  -1  -1 -25   46.47    8.07
  -1   1  25   44.37    8.02
   1  -1 -26  166.52   19.74
  -1   1 -26  171.63   21.56
  -1  -1  26  165.21   15.70
  -1  -1 -26  165.50   13.03
   1  -1  26  161.79   11.31
  -1   1  26  157.64   23.82
   1  -1 -27   40.51    7.45
  -1   1 -27   51.49    6.96
  -1  -1  27   36.48    6.18
   1   1 -27   46.65    7.87
  -1  -1 -27   45.04    8.72
   1  -1  27   40.42   10.25
  -1   1  27   44.43    8.52
   1  -1 -28    5.76    1.73
  -1   1 -28    3.35    1.41
  -1  -1  28    3.04    1.65
   1   1 -28    6.68    1.54
  -1  -1 -28    5.45    1.76
   1  -1  28    3.89    1.24
  -1   1  28    3.81    1.30
   1  -1 -29    1.81    1.74
  -1   1 -29    2.21    1.38
  -1  -1  29   -0.56    2.21
   1   1 -29    3.47    1.23
  -1  -1 -29    1.38    1.72
   1  -1  29    2.81    1.71
  -1   1  29   -2.91    2.71
   1  -1 -30   98.38   18.46
  -1   1 -30  113.91   15.90
  -1  -1  30   96.17   19.70
   1   1 -30   96.90   10.89
  -1  -1 -30   98.82   18.81
   1  -1  30   97.52   13.19
  -1   1  30   96.85   17.47
   1  -1 -31   89.15   10.57
  -1   1 -31   87.32   11.45
   1   1 -31   94.88   11.82
  -1  -1 -31   77.14   16.56
   1  -1  31   72.60   10.52
  -1   1  31   74.89   13.08
  -1  -1  32   89.98   15.93
   1  -1 -32   80.58   15.93
  -1   1 -32   85.53    8.38
   1   1  32   74.03   18.09
   1   1 -32   99.07   10.05
   1  -1  32   80.73   13.90
  -1  -1 -32   81.02   13.45
  -1   1  32   84.20   13.31
  -1  -1  33  122.57   18.37
   1  -1 -33  134.68   13.24
  -1   1 -33  118.55    9.82
   1   1  33  109.90   21.71
   1   1 -33  138.47   17.24
   1  -1  33  127.49   15.64
  -1  -1 -33  124.59   10.38
  -1   1  33  128.53   16.27
  -1  -1  34   87.00   16.03
   1  -1 -34  100.88   20.69
  -1   1 -34   85.29   13.77
   1   1  34   84.36   16.75
   1   1 -34  102.49   20.71
   1  -1  34  102.15   15.61
  -1  -1 -34   82.04   17.50
  -1   1  34   83.15   16.64
  -1  -1  35   -1.29    2.45
   1  -1 -35   -0.61    2.53
  -1   1 -35    1.71    1.28
   1   1  35    4.45    2.53
   1   1 -35    6.40    3.42
   1  -1  35    0.36    1.63
  -1  -1 -35    0.89    1.35
  -1   1  35    1.57    1.18
   1  -1 -36    4.81    2.97
  -1  -1  36    6.32    3.69
   1   1  36   10.54    3.43
   1   1 -36    4.69    2.73
   1  -1  36    4.06    2.72
  -1  -1 -36    4.17    2.24
  -1   1  36    6.11    3.39
   1  -1 -37    6.29    2.45
  -1  -1  37    5.98    9.05
   1   1  37    5.25    3.19
   1   1 -37    7.69    3.16
   1  -1  37    7.80    3.15
  -1  -1 -37    8.30    3.02
  -1   1  37   10.68    4.18
   1  -1 -38    3.54    5.36
   1   1  38    2.66    3.97
  -1  -1  38    3.71    2.10
   1  -1  38    4.58    2.33
  -1   1  38    2.58    4.11
  -1  -1  39    5.27    2.60
  -1   1  39    2.05    3.47
   1   2   0   -0.12    1.52
  -1   2   0    4.98    1.20
  -1   2   0    3.38    1.00
   1  -2   0    4.55    1.01
  -1  -2   0    4.03    0.98
   1  -2   0   -2.55    4.61
  -1  -2   0    4.43    0.79
   1   2   1  433.54   10.01
  -1   2  -1  449.76   11.17
   1  -2  -1  458.10    9.85
  -1   2  -1  450.16   10.19
  -1  -2   1  441.58   10.12
  -1  -2   1  450.35    9.55
  -1   2   1  477.20   10.68
  -1  -2  -1  441.92   10.11
   1  -2   1  470.27   10.65
  -1  -2  -1  465.44    9.69
   1   2  -1  452.08   10.21
  -1  -2  -1  457.99    9.54
  -1   2   1  444.79   10.21
   1   2   2  517.69   12.21
  -1  -2   2  533.17   11.35
  -1   2  -2  517.33   11.68
   1  -2  -2  504.41   10.98
  -1  -2   2  489.98   11.17
  -1   2   2  520.08   11.60
  -1  -2  -2  492.77   11.53
   1  -2   2  503.88   11.39
   1   2  -2  539.26   12.08
  -1  -2  -2  502.04   10.46
  -1   2   2  502.56   11.41
   1   2   3  895.56   19.56
  -1  -2   3  960.56   20.27
  -1   2  -3  938.58   20.67
   1  -2  -3  943.74   20.03
  -1  -2   3  945.11   20.46
  -1   2   3  958.02   21.48
  -1  -2  -3  917.45   20.38
   1  -2   3  918.68   20.13
   1   2  -3  931.70   19.99
  -1  -2  -3  925.97   19.23
  -1   2   3  909.40   19.73
   1   2   4  628.60   13.97
  -1   2  -4  664.38   13.78
  -1  -2   4  621.07   13.82
  -1   2  -4  643.21   14.20
  -1  -2   4  644.26   14.30
   1  -2  -4  641.58   14.02
  -1  -2  -4  617.05   13.82
   1   2  -4  651.10   14.65
   1  -2   4  607.12   13.53
  -1   2   4  632.52   13.83
  -1   2   4  622.42   13.88
  -1   2  -5  114.00   11.76
  -1  -2   5  143.96    6.98
  -1   2  -5  141.16    6.70
  -1  -2   5  133.62    6.37
   1  -2  -5  112.38    6.74
  -1  -2  -5  131.01    6.31
   1   2  -5  141.69    6.74
   1  -2   5  136.41    6.47
  -1   2   5  136.97    6.95
  -1   2   5  143.58    6.77
   1   2   6 1259.49   27.42
  -1   2  -6 1171.78   24.49
  -1  -2   6 1203.52   26.29
  -1   2  -6 1138.22   24.69
  -1  -2   6 1135.97   24.47
   1  -2  -6 1171.91   26.44
  -1  -2  -6 1141.25   24.86
   1   2  -6 1118.47   23.83
   1  -2   6 1098.27   24.26
  -1   2   6 1162.36   24.46
  -1   2   6 1142.11   24.74
   1   2   7  508.91   11.84
  -1  -2   7  498.75   11.41
  -1   2  -7  535.12   12.30
  -1   2  -7  505.30   11.22
   1  -2  -7  503.52   11.45
  -1  -2   7  507.78   11.68
  -1  -2  -7  520.09   12.20
   1  -2   7  508.94   12.48
  -1   2   7  515.93   11.74
  -1   2   7  515.18   11.86
   1   2   8  226.30   11.54
  -1  -2   8  210.96    9.82
  -1   2  -8  231.44   10.63
  -1   2  -8  219.64   10.08
   1  -2  -8  197.73    9.11
  -1  -2   8  212.49    9.81
  -1  -2  -8  223.43   10.40
   1  -2   8  244.57   11.74
  -1   2   8  210.84    9.81
  -1   2   8  222.76   10.50
   1   2   9  164.16    9.44
  -1  -2   9  183.59    8.79
  -1   2  -9  179.34    8.45
  -1   2  -9  165.41   10.96
   1  -2  -9  166.73    8.07
  -1  -2   9  167.10    7.95
  -1  -2  -9  177.35    8.56
   1  -2   9  171.95    8.32
  -1   2   9  161.71    7.19
  -1   2   9  176.15    8.39
   1   2  10   18.61    5.01
  -1  -2  10   17.47    2.96
  -1   2 -10   17.41    2.19
  -1   2 -10   14.25    2.74
   1  -2 -10   11.27    7.82
  -1  -2  10   20.63    2.94
  -1  -2 -10   25.31    4.28
   1  -2  10   17.29    3.35
  -1   2  10   16.18    1.55
  -1   2  10   24.61    6.26
   1   2  11  281.22    9.50
   1  -2 -11  263.08    9.25
  -1   2 -11  264.97    8.78
   1   2  11  265.75    9.29
  -1   2  11  244.00    7.85
  -1  -2 -11  266.93   10.86
   1  -2  11  251.90    8.88
   1   2 -11  281.42    9.34
  -1   2  11  251.68    8.90
   1   2  12  662.35   21.27
  -1   2 -12  645.43   20.58
  -1  -2  12  670.41   21.65
   1   2 -12  679.73   21.50
  -1   2  12  644.58   20.07
  -1  -2 -12  651.74   21.28
   1  -2  12  685.10   22.29
  -1   2  12  658.65   21.39
   1   2  13    6.01    1.62
  -1   2 -13    9.01    2.47
  -1  -2  13    9.34    2.83
   1   2 -13    6.50    1.35
   1   2 -13    6.78    1.42
  -1  -2 -13    6.59    1.46
   1  -2  13    6.00    1.71
  -1   2  13    6.89    1.14
   1   2  14  224.02    7.38
   1  -2 -14  227.21    7.89
  -1   2 -14  234.40    7.42
  -1  -2  14  226.84    7.62
   1   2 -14  215.17    7.40
  -1  -2 -14  221.54    7.94
   1  -2  14  246.38    8.33
   1   2 -14  228.38    7.03
  -1   2  14  228.92    7.77
   1   2  15  220.86   17.68
  -1   2 -15  215.67    7.51
   1  -2 -15  207.98    7.85
  -1  -2  15  220.40    7.99
   1   2 -15  234.14    7.91
  -1  -2 -15  236.38    9.23
  -1   2  15  240.11    8.84
   1   2  16  785.87   22.62
  -1   2 -16  762.31   21.85
  -1   2 -16  778.11   22.24
   1   2 -16  770.26   22.28
  -1  -2 -16  767.20   23.00
  -1   2  16  802.81   23.29
   1   2  17   20.95    4.77
   1  -2 -17   26.83    4.05
  -1   2 -17   24.15    3.05
  -1  -2  17   25.49    5.98
   1   2 -17   22.35    2.25
  -1  -2 -17   33.15    5.40
   1   2 -17   26.73    4.45
  -1   2  17   28.70    4.95
   1   2  18   87.90    6.31
  -1   2 -18   84.78    6.44
  -1   2 -18  103.60   10.25
  -1  -2  18   85.78    6.62
   1   2 -18   90.43    5.33
  -1  -2 -18   84.17    5.04
   1  -2  18   96.09    5.77
   1   2 -18   78.69    6.63
  -1   2  18   99.39    9.60
   1   2  19   24.09    5.52
  -1  -2  19   23.09    5.32
  -1   2 -19   29.18    4.67
  -1   2 -19   22.85    3.63
   1  -2 -19   24.01    5.08
   1   2 -19   26.18    6.43
  -1  -2 -19   29.60    5.63
   1  -2  19   25.96    4.82
   1   2 -19   20.31    4.14
  -1   2  19   28.00    4.95
   1   2  20   19.32    3.67
   1   2  20   21.18    3.94
   1  -2 -20   21.47    3.89
  -1   2 -20   19.05    3.66
  -1  -2  20   18.27    4.90
   1   2 -20   21.92    4.18
  -1  -2 -20   21.19    3.76
   1  -2  20   17.85    4.88
   1   2 -20   12.57    2.94
  -1   2  20   22.27    4.38
   1   2  21   38.24    7.09
  -1   2 -21   39.10    7.03
   1   2  21   47.58    6.19
   1  -2 -21   47.09    9.90
  -1   2 -21   51.61    3.80
  -1  -2  21   50.43    8.15
   1   2 -21   47.37    6.73
   1  -2  21   43.60    8.27
  -1  -2 -21   57.29    9.32
  -1   2  21   53.27    7.25
   1   2  22  188.02    9.71
  -1   2 -22  193.17   10.20
   1  -2 -22  211.62   13.37
   1   2  22  219.13   11.86
  -1  -2  22  206.17   11.89
   1   2 -22  211.96   17.72
   1  -2  22  207.88   11.68
  -1  -2 -22  218.08   12.10
  -1   2  22  222.99   12.40
   1   2  23   72.31    9.55
  -1   2 -23   79.69   13.97
   1  -2 -23  109.85   17.31
  -1   2 -23  125.30    8.96
  -1  -2  23   96.45   15.86
   1   2  23  104.46   16.13
   1   2 -23  110.08   14.45
  -1  -2 -23   98.78    6.60
  -1   2  23   88.24    6.57
  -1   2 -24  325.78   25.18
  -1   2 -24  343.68   26.93
   1   2  24  359.28   28.05
   1   2 -24  351.77   27.51
  -1  -2 -24  355.66   28.12
   1  -2  24  367.48   28.72
  -1   2  24  369.39   29.69
   1  -2 -25  100.63   17.71
   1   2  25   89.50   16.06
  -1  -2  25   93.13   19.54
   1   2 -25   89.80   13.85
   1  -2  25   86.87   15.48
  -1  -2 -25   91.45   15.14
  -1   2  25   91.68   14.50
  -1   2 -26    2.64    0.76
   1   2  26    3.38    1.42
   1  -2 -26    3.25    1.31
  -1   2 -26    2.76    0.95
  -1  -2  26    0.30    1.61
   1   2 -26    4.14    1.57
   1  -2  26    5.47    2.25
  -1  -2 -26    4.14    1.39
  -1   2  26    3.42    2.18
   1   2  27   15.42    3.04
   1  -2 -27   16.42    3.61
  -1   2 -27   13.61    2.66
  -1  -2  27   20.53    3.75
   1   2 -27   16.05    2.99
   1  -2  27   17.35    3.81
  -1  -2 -27   13.27    3.71
  -1   2  27   14.46    3.02
   1   2  28  204.66   19.57
   1  -2 -28  198.76   25.37
  -1   2 -28  189.25   19.12
  -1  -2  28  200.99   22.37
   1   2 -28  209.11   14.45
   1  -2  28  200.85    8.51
  -1  -2 -28  210.32    6.66
  -1   2  28  221.06   24.26
   1   2  29   62.93   10.37
   1  -2 -29   63.51   12.33
  -1   2 -29   62.46   10.27
  -1  -2  29   61.21   11.32
   1   2 -29   67.73    9.88
   1  -2  29   58.13   11.66
  -1  -2 -29   59.86   13.16
  -1   2  29   57.86    9.96
   1   2  30   39.23    7.49
   1  -2 -30   47.48    8.77
  -1   2 -30   40.10    6.96
  -1  -2  30   46.81    8.93
   1   2 -30   42.97    7.90
   1  -2  30   39.74    6.94
  -1  -2 -30   32.42    6.44
  -1   2  30   39.54    9.41
   1  -2 -31   94.63   17.50
  -1   2 -31   99.73    9.01
   1   2  31   91.88   12.86
  -1  -2  31   79.43   17.03
   1  -2  31   96.10   14.21
  -1  -2 -31   96.83   11.14
  -1   2  31   88.09   14.05
   1   2  32    5.01    2.37
   1  -2 -32   14.11    3.29
  -1   2 -32    3.70    1.63
  -1  -2  32    6.84    3.26
   1   2 -32    9.04    3.24
   1  -2  32    8.87    3.11
  -1  -2 -32    8.06    3.40
  -1   2  32    7.93    3.13
   1   2  33    4.21    2.05
   1  -2 -33   10.65    3.14
  -1   2 -33    2.73    1.38
  -1  -2  33    2.40    1.76
   1   2 -33    3.38    1.98
   1  -2  33    4.50    2.50
  -1  -2 -33    2.53    3.36
  -1   2  33    5.61    2.64
   1  -2 -34   30.18    5.93
   1   2  34   24.34    8.10
  -1  -2  34   38.10    9.14
   1   2 -34   31.92   14.78
   1  -2  34   27.52    5.75
  -1  -2 -34   25.11    7.52
  -1   2  34   27.11    5.75
   1  -2 -35   26.79    7.87
   1   2  35   19.82    7.31
  -1  -2  35   20.81    6.74
   1   2 -35   21.71    5.81
   1  -2  35   26.68    7.63
  -1  -2 -35   17.84    6.03
  -1   2  35   18.89    6.16
   1  -2 -36   26.51    7.95
   1   2  36   17.05    7.24
  -1  -2  36   19.02    7.52
   1   2 -36   21.00    8.43
   1  -2  36   23.17    8.27
  -1  -2 -36   20.88    7.73
  -1   2  36   20.12    7.50
   1  -2 -37    9.16    3.18
  -1  -2  37    6.83    2.80
  -1  -2 -37    4.21    2.87
   1  -2  37    7.99    3.37
  -1   2  37    8.16    3.48
   1  -2 -38    7.40    2.95
  -1  -2  38    3.22    4.93
   1  -2  38    4.79    2.79
  -1   2  38    4.04    2.50
  -1  -2  39    0.60    1.97
   1   3   0 1224.43   27.07
  -1   3   0 1247.96   27.00
  -1  -3   0 1198.81   25.98
  -1  -3   0 1195.77   24.96
   1   3   1   16.57    4.20
   1  -3  -1   13.80    1.89
  -1  -3   1   13.93    1.10
  -1   3  -1   13.45    6.49
  -1  -3   1   14.66    2.58
   1   3  -1   18.82    3.40
  -1  -3  -1   21.86    3.34
   1  -3   1   17.59    3.74
  -1  -3  -1   17.92    1.88
  -1   3   1   24.20    5.64
  -1   3   1   20.93    3.01
   1   3   2  427.42   10.29
  -1  -3   2  441.68    9.66
  -1  -3   2  452.04   10.58
  -1   3  -2  466.97   10.91
  -1  -3  -2  452.65   10.67
  -1   3   2  460.96   10.71
  -1  -3  -2  440.13    9.43
   1  -3   2  423.20   10.03
   1   3  -2  496.27   11.89
  -1   3   2  445.46   10.48
   1   3   3  872.29   19.46
  -1  -3   3  890.94   18.98
  -1  -3   3  875.30   19.58
  -1   3  -3  875.03   19.31
   1   3  -3  879.56   19.80
  -1   3   3  886.65   19.50
   1  -3   3  843.81   18.61
  -1  -3  -3  848.56   18.87
  -1   3   3  873.11   19.48
   1   3   4  172.62    8.31
  -1  -3   4  180.26    8.53
  -1   3  -4  186.47    8.82
  -1  -3   4  182.38    8.28
  -1  -3  -4  189.27    8.91
   1  -3   4  184.05    8.05
   1  -3   4  182.80    8.57
  -1   3   4  166.82   11.97
  -1   3   4  186.74    8.85
  -1  -3   5 1647.17   34.69
  -1  -3   5 1740.94   37.02
  -1   3  -5 1645.62   35.41
  -1  -3  -5 1766.57   37.85
  -1   3   5 1727.09   36.77
   1  -3   5 1728.55   35.74
   1  -3   5 1744.32   37.22
   1   3  -5 1805.66   38.69
  -1   3   5 1753.29   37.76
  -1   3  -6 1697.66   35.21
  -1  -3   6 1652.27   35.35
  -1   3  -6 1773.28   38.11
  -1  -3   6 1826.59   38.88
   1  -3  -6 1842.05   39.28
  -1  -3  -6 1790.84   38.70
   1   3  -6 1925.97   40.98
   1  -3   6 1933.89   41.40
  -1   3   6 1808.69   39.04
  -1   3   6 1825.34   38.97
   1   3   7 1129.16   24.85
  -1   3  -7 1096.09   23.06
  -1  -3   7 1168.68   25.35
  -1   3  -7 1113.32   24.55
  -1  -3   7 1128.86   24.75
   1  -3  -7 1148.04   25.01
   1   3   7 1126.66   23.93
  -1  -3  -7 1112.11   24.92
   1  -3   7 1125.75   24.89
  -1   3   7 1188.04   26.35
   1   3  -7 1085.13   23.84
  -1   3   7 1107.46   25.06
   1   3   8   97.59    9.07
  -1  -3   8   90.26    7.73
  -1   3  -8   90.70    6.34
  -1   3  -8   90.92    6.04
   1  -3  -8   75.78    5.63
  -1  -3   8   99.36   11.21
   1   3   8   94.16    6.26
  -1  -3  -8   90.93    6.40
   1  -3   8   91.04    6.40
  -1   3   8   86.78    8.64
  -1   3   8   99.91    6.99
   1   3   9  612.05   19.92
  -1  -3   9  608.55   19.61
  -1   3  -9  559.64   18.60
  -1   3  -9  566.36   17.82
   1  -3  -9  575.67   18.85
  -1  -3   9  568.22   18.40
   1   3   9  574.01   18.30
  -1  -3  -9  574.39   18.91
   1  -3   9  604.43   19.72
  -1   3   9  592.75   18.88
  -1   3   9  599.34   19.53
   1   3  10  543.92   17.61
  -1  -3  10  531.31   17.85
  -1   3 -10  556.38   18.43
  -1   3 -10  532.75   17.02
   1  -3 -10  472.51   15.83
  -1  -3  10  526.99   17.54
   1   3  10  547.72   17.52
  -1  -3 -10  519.23   17.36
   1  -3  10  545.88   18.12
  -1   3  10  539.18   17.07
  -1   3  10  527.88   17.86
   1   3  11   72.85    5.11
  -1  -3  11   84.55    8.68
   1   3  11   77.54    6.83
  -1   3 -11   77.89    5.57
  -1   3 -11   78.48    5.34
   1  -3 -11   79.23    6.26
  -1  -3 -11   90.15    9.56
   1  -3  11   81.35    7.40
   1   3 -11   81.92    6.16
  -1   3  11   80.54    5.38
  -1   3  11   83.48    6.28
   1   3  12  623.04   20.12
   1  -3 -12  693.65   22.96
  -1   3 -12  676.24   21.46
   1   3  12  692.03   22.27
  -1   3  12  661.70   20.80
  -1  -3 -12  659.86   21.84
   1  -3  12  616.95   20.24
   1   3 -12  695.91   22.24
  -1   3  12  633.01   20.76
   1   3  13  352.27   19.27
   1   3  13  385.89   13.98
   1  -3 -13  379.68   13.96
  -1   3  13  365.85   10.63
   1  -3  13  380.37   12.15
   1   3 -13  393.91   11.68
  -1   3  13  366.45   12.33
   1   3  14  571.16   17.01
   1  -3 -14  604.09   18.44
  -1   3 -14  608.19   17.49
   1   3  14  595.04   17.70
   1   3 -14  610.90   17.66
  -1  -3 -14  609.29   18.58
   1  -3  14  595.06   19.55
  -1   3  14  572.85   16.12
  -1   3  14  583.17   17.68
   1   3  15  311.17   11.08
   1   3  15  339.63   10.62
  -1  -3  15  324.14   14.66
  -1   3 -15  326.00   10.46
  -1   3 -15  360.85   11.45
   1  -3 -15  340.97   11.62
  -1   3  15  314.41    9.39
   1   3 -15  317.60   10.15
   1  -3  15  331.28   10.94
   1   3 -15  353.34   10.99
  -1  -3 -15  343.02   11.69
  -1   3  15  331.83   10.82
   1   3  16   47.11    3.22
  -1  -3  16   60.42    4.10
  -1   3 -16   58.86    4.01
   1   3  16   62.55    9.16
  -1   3 -16   52.62    3.47
   1  -3 -16   62.39   10.03
   1   3 -16   59.85    9.63
   1  -3  16   57.35    6.83
  -1   3  16   48.73    3.04
  -1  -3 -16   58.68    4.14
  -1   3  16   65.76    9.16
   1   3  17   14.97    2.98
  -1   3 -17   14.84    2.70
   1   3  17    8.88    2.23
  -1   3 -17   15.02    2.69
   1  -3 -17   13.16    3.65
  -1  -3  17   12.05    2.98
   1   3 -17   11.32    2.40
   1  -3  17   16.63    2.86
  -1  -3 -17   16.11    2.79
  -1   3  17   14.97    2.91
   1   3  18  116.43    8.67
  -1  -3  18  124.67   10.16
  -1   3 -18  123.34    5.95
   1   3  18  123.49    5.95
  -1   3 -18  114.61    5.95
   1  -3 -18  102.36    5.43
   1   3 -18  125.54    6.53
   1  -3  18  120.52    6.28
   1   3 -18  121.81    5.72
  -1  -3 -18  117.21    6.75
  -1   3  18  121.99    6.25
   1   3  19  399.93   16.03
   1   3  19  490.87   19.68
  -1   3 -19  443.71   17.85
  -1   3 -19  438.10   18.51
   1  -3 -19  460.09   18.92
   1   3 -19  448.95   18.22
  -1  -3 -19  445.57   18.29
   1  -3  19  434.33   17.97
   1   3 -19  426.25   17.41
  -1   3  19  456.71   18.79
   1   3  20   96.16    8.97
   1   3  20  103.97    5.34
   1  -3 -20   95.32   14.56
  -1  -3  20  108.20   17.18
   1   3 -20  101.95    8.53
   1   3 -20  101.82    7.82
   1  -3  20   94.17    7.25
  -1  -3 -20  111.43   18.09
  -1   3  20  103.30   12.90
   1   3  21    1.97    0.57
   1  -3 -21    0.80    1.38
  -1   3 -21    1.70    1.49
   1   3  21    4.36    2.16
  -1  -3  21    3.34    1.86
   1   3 -21    4.94    0.93
  -1  -3 -21    6.84    4.14
   1   3 -21    1.27    0.37
  -1   3  21    6.48    5.04
   1   3  22  319.88   16.08
  -1   3 -22  374.75   19.01
   1  -3 -22  319.34   16.72
   1   3  22  380.53   19.46
  -1  -3  22  328.87   17.86
   1   3 -22  344.47   17.78
   1  -3  22  358.90   20.24
  -1  -3 -22  343.90   18.37
  -1   3  22  339.99   17.79
   1   3  23  239.69   18.56
  -1   3 -23  351.26   27.36
   1   3  23  248.54   35.65
  -1   3 -23  275.88   37.40
   1  -3 -23  254.93   20.93
  -1  -3  23  255.83   20.96
   1   3 -23  290.17   23.67
   1  -3  23  280.45   22.36
  -1  -3 -23  254.08   20.41
  -1   3  23  252.44   19.98
  -1   3 -24   26.84    5.38
  -1   3 -24   33.94    4.12
   1  -3 -24   33.82    5.58
  -1  -3  24   34.27    7.43
   1   3  24   28.71    4.66
   1   3 -24   37.82    5.65
  -1  -3 -24   31.84    7.04
  -1   3  24   27.61    3.93
  -1   3 -25   21.59    4.79
   1   3  25   31.93    8.15
  -1   3 -25   39.30    6.97
   1  -3 -25   35.00    7.08
  -1  -3  25   30.04    4.63
   1   3 -25   42.04    7.39
   1  -3  25   39.36    9.80
  -1  -3 -25   37.65    6.97
  -1   3  25   34.67    6.53
  -1   3 -26   47.72   11.76
   1   3  26   76.45   13.50
  -1   3 -26   83.02   12.74
   1  -3 -26   84.52   15.49
  -1  -3  26   74.48   14.48
   1   3 -26   78.90   14.87
   1  -3  26   78.51   14.25
  -1  -3 -26   83.78   16.45
  -1   3  26   77.75   13.87
   1   3  27  156.52    5.90
  -1   3 -27  132.77   16.14
   1  -3 -27  136.68   14.47
  -1  -3  27  140.55   22.98
   1   3 -27  140.56   16.09
   1  -3  27  133.53   14.46
  -1  -3 -27  131.67    8.34
   1   3  28   94.31   15.92
  -1   3 -28   83.24   19.35
   1  -3 -28   97.77   15.80
  -1  -3  28   98.46   14.61
   1   3 -28  105.08   12.80
   1  -3  28  100.81   15.53
  -1  -3 -28   96.99   10.12
   1   3  29    3.27    1.86
  -1   3 -29    1.53    1.49
   1  -3 -29   -0.30    2.24
  -1  -3  29    3.39    1.17
   1   3 -29    3.80    1.27
   1  -3  29    7.85    2.73
  -1  -3 -29    1.82    1.85
   1   3  30    1.91    0.99
  -1   3 -30    0.62    0.80
   1  -3 -30    6.36    2.71
  -1  -3  30    3.61    1.63
   1   3 -30    1.28    0.91
   1  -3  30    3.27    1.70
  -1  -3 -30    1.38    0.98
   1   3  31   94.44   20.75
  -1   3 -31  109.79    8.25
   1  -3 -31  112.16   14.40
  -1  -3  31  106.46   19.54
   1   3 -31  104.80   14.36
   1  -3  31  100.82   13.57
  -1  -3 -31  107.40    8.85
   1  -3 -32   20.12    4.29
   1   3  32   16.61    4.12
  -1  -3  32   16.63    4.46
   1   3 -32   17.30    3.54
   1  -3  32   17.61    3.90
  -1  -3 -32   15.10    3.80
  -1   3  32   11.83    3.33
   1  -3 -33   24.74    6.67
   1   3  33   18.53    4.82
  -1  -3  33   17.72    4.83
   1   3 -33   20.26    4.39
   1  -3  33   20.48    4.41
  -1  -3 -33   18.02    4.47
  -1   3  33   17.99    5.91
   1  -3 -34   17.81    4.84
   1   3  34   12.96    3.20
  -1  -3  34    8.11    4.17
   1   3 -34   14.56    3.76
   1  -3  34   14.90    3.57
  -1  -3 -34   12.42    4.32
  -1   3  34   11.44    3.56
   1  -3 -35    6.07    2.90
  -1  -3  35    6.94    3.66
   1   3 -35    7.03    3.46
  -1  -3 -35    5.59    2.91
   1  -3  35    9.98    2.77
   1  -3 -36    4.19    2.72
  -1  -3  36    4.49    2.72
  -1  -3 -36    4.83    2.98
   1  -3  36    7.26    2.99
   1  -3 -37    2.60    3.97
  -1  -3  37    2.98    4.71
  -1  -3 -37    5.52    2.82
   1  -3  37    1.60    2.70
   1  -3 -38   -0.79    1.89
  -1  -3  38   -2.38    2.43
   1  -3  38    1.66    2.65
  -1   4   0    3.03    1.70
   1  -4   0    3.09    0.55
  -1  -4   0    3.95    0.79
   1  -4   0    0.77    0.56
  -1  -4   0    3.53    0.67
   1   4   1  233.33    8.61
   1  -4  -1  209.68   13.22
  -1   4  -1  226.41   14.60
  -1  -4   1  212.81   13.70
  -1  -4   1  232.69    7.68
  -1   4   1  225.34   14.66
   1  -4   1  209.71   13.11
  -1  -4  -1  206.72   13.30
   1  -4   1  221.10   14.15
  -1  -4  -1  216.39   13.52
   1   4  -1  236.05    8.39
   1   4   2  534.13   17.66
  -1  -4   2  520.56   16.48
  -1   4  -2  583.37   19.10
  -1  -4   2  531.12   17.44
  -1   4   2  572.53   18.66
  -1  -4  -2  540.92   17.74
   1  -4   2  532.83   16.73
   1  -4   2  492.05   16.41
   1   4  -2  583.00   19.01
  -1   4   2  520.62   17.02
  -1  -4   3  515.83   16.63
  -1   4  -3  536.20   18.73
  -1  -4   3  511.03   16.73
   1   4  -3  459.65   15.23
  -1  -4  -3  535.83   17.66
   1  -4   3  495.40   15.54
  -1  -4  -3  500.03   15.86
   1  -4   3  501.99   16.51
  -1   4   3  510.13   17.50
  -1   4   3  513.20   16.99
   1   4   4 1486.74   47.65
  -1  -4   4 1387.47   43.07
  -1  -4   4 1388.77   43.45
  -1   4  -4 1551.33   48.58
   1   4   4 1367.17   42.26
  -1   4   4 1358.63   42.97
   1  -4   4 1386.65   42.69
  -1  -4  -4 1359.76   42.69
   1   4  -4 1360.14   42.55
  -1   4   4 1418.81   44.42
   1  -4   4 1473.57   46.20
   1   4   5   19.57    4.49
   1  -4  -5   23.85    5.12
  -1  -4   5   19.98    4.21
  -1   4  -5   20.84    4.63
   1   4   5   22.61    2.47
  -1  -4   5   20.95    3.78
   1   4  -5   19.90    4.99
   1  -4   5   18.65    2.30
  -1  -4  -5   23.50    4.16
  -1   4   5   19.83    4.25
  -1   4   5   23.17    3.01
   1  -4   5   20.97    3.54
   1   4   6   51.44    9.83
  -1  -4   6   50.29    4.13
   1   4   6   48.38    3.53
  -1   4  -6   50.85    4.43
   1  -4  -6   46.75    4.46
  -1  -4  -6   60.84    8.79
   1  -4   6   51.52    3.43
   1  -4   6   49.39    5.17
   1   4  -6   48.75    3.75
  -1   4   6   66.94   13.27
  -1   4   6   60.03    7.41
   1   4   7  544.88   17.81
   1   4   7  524.08   16.67
  -1   4  -7  482.87   17.51
  -1  -4   7  559.62   18.03
  -1   4   7  581.20   18.77
   1  -4   7  520.73   16.30
   1  -4   7  515.13   17.02
  -1  -4  -7  527.58   17.54
   1   4  -7  480.81   15.86
  -1   4   7  531.45   17.67
   1   4   8  196.37   12.97
   1   4   8  203.03   12.85
  -1   4  -8  201.02   13.00
  -1  -4   8  214.92   13.73
  -1   4   8  201.46   12.90
   1   4  -8  184.89   12.15
   1  -4   8  186.27   12.36
  -1  -4  -8  198.11   13.11
  -1   4   8  202.42   13.15
   1   4   9   87.83    6.52
   1   4   9   90.80    6.37
  -1   4  -9   88.92    6.95
  -1   4  -9   79.51    5.24
  -1  -4   9   90.64   12.14
  -1  -4   9   91.25    6.47
  -1   4   9   84.05    7.13
  -1  -4  -9   95.78    7.82
  -1   4   9   93.91    7.23
   1   4  10  930.56   28.61
   1  -4 -10  950.67   27.12
  -1   4 -10  967.20   27.56
  -1   4 -10  926.40   25.52
   1   4  10  970.30   27.14
  -1  -4 -10  961.87   27.63
   1  -4  10  925.50   26.73
  -1   4  10  943.22   26.43
  -1   4  10  935.99   26.98
   1   4  11  948.31   26.99
   1  -4 -11  965.10   27.58
  -1   4 -11  982.74   27.99
  -1   4 -11  992.07   27.29
   1   4  11  978.27   27.97
  -1  -4 -11  973.99   28.10
   1  -4  11  930.07   27.10
  -1   4  11  913.00   25.41
  -1   4  11  983.36   28.07
   1   4  12  136.78   25.57
   1  -4 -12  125.91    9.26
  -1   4 -12  135.21    9.06
  -1   4 -12  134.90    8.72
   1   4  12  139.70    9.20
  -1   4  12  136.10   15.96
  -1   4  12  136.63    9.42
   1   4  13  160.68   10.51
   1   4  13  177.45   11.56
  -1   4 -13  181.01   12.46
   1  -4 -13  168.62   11.25
  -1  -4  13  186.53    6.74
   1   4 -13  178.17   11.76
  -1  -4 -13  169.34   11.58
   1  -4  13  171.11   11.46
  -1   4  13  171.67   11.14
  -1   4  13  176.07   15.00
   1   4  14  162.46   11.35
   1   4  14  165.46    9.43
  -1   4 -14  156.67    8.70
   1  -4 -14  154.11    9.15
  -1  -4  14  153.50    8.88
   1   4 -14  156.02    9.00
  -1  -4 -14  149.26    9.02
   1  -4  14  151.10    9.24
  -1   4  14  151.28    8.81
  -1   4  14  154.77    9.15
   1   4  15   14.46    3.24
   1  -4 -15   26.77   11.52
  -1   4 -15   26.88    4.40
   1   4  15   26.68    4.06
  -1  -4  15   27.21    6.50
   1   4 -15   79.71   18.46
  -1  -4 -15   32.59    6.29
  -1   4  15   26.61    3.88
  -1   4  15   26.55    5.77
   1   4  16  988.22   38.02
   1   4  16 1012.19   38.78
  -1   4 -16  962.66   36.51
  -1   4 -16 1009.57   38.85
  -1  -4  16  974.85   38.89
   1   4 -16  985.65   38.13
   1  -4  16  973.23   40.50
   1   4 -16 1033.85   33.85
  -1   4  16  980.06   37.02
   1   4  17   61.61    6.07
  -1   4 -17   92.22    7.93
  -1   4 -17   99.20    9.11
   1   4  17   82.05   11.95
  -1   4  17   74.58    7.09
   1  -4  17  100.47   16.12
   1   4 -17   84.28   10.22
   1   4  18   90.60    4.48
  -1  -4  18   94.81    7.76
  -1   4 -18   96.16   13.15
   1   4  18  105.61    5.06
  -1   4 -18  100.19    8.00
   1  -4 -18   91.15    4.96
   1   4 -18   95.28    4.83
   1  -4  18   98.61    7.77
   1   4 -18   95.98    6.78
  -1  -4 -18  115.01   18.30
   1   4  19   40.21    4.57
  -1  -4  19   53.20    7.79
  -1   4 -19   45.92    6.63
   1   4  19   45.24    6.74
  -1   4 -19   42.00    6.98
   1  -4 -19   44.00   10.16
   1   4 -19   43.92    8.32
   1  -4  19   49.94    9.67
   1   4 -19   40.16    6.78
  -1  -4 -19   55.97    9.32
   1   4  20  227.36   11.64
  -1  -4  20  215.84   12.25
  -1   4 -20  231.22   12.28
   1   4  20  233.29   12.32
  -1   4 -20  228.10   16.00
   1  -4 -20  231.73   12.70
   1   4 -20  230.69   16.98
   1  -4  20  207.97   12.71
   1   4 -20  206.86   12.42
  -1  -4 -20  230.31   14.30
   1   4  21   21.77    5.04
   1   4  21   25.06    4.34
  -1   4 -21   24.55    3.95
   1  -4 -21   26.32    5.93
  -1  -4  21   29.13    5.65
   1   4 -21   26.40    4.61
  -1  -4 -21   34.05    6.56
   1  -4  21   26.20    5.58
   1   4 -21   19.42    4.39
   1   4  22   43.84    4.05
  -1  -4  22   53.78   11.59
  -1   4 -22   42.80    9.22
   1   4  22   50.88    6.99
  -1   4 -22   48.87    4.05
   1  -4 -22   55.16   11.52
   1   4 -22   58.65   10.32
   1  -4  22   51.03    8.41
   1   4 -22   46.34    5.37
  -1  -4 -22   54.32   10.58
   1   4  23   46.59    6.71
  -1  -4  23   52.22   10.03
  -1   4 -23   46.57   10.83
   1   4  23   51.31    9.46
  -1   4 -23   49.94    8.56
   1  -4 -23   59.36   11.15
   1   4 -23   48.65   11.28
   1  -4  23   58.26   12.48
   1   4 -23   32.80    9.93
  -1  -4 -23   56.15    8.65
  -1   4  23   49.12    8.78
  -1   4 -24  210.96   13.77
  -1   4 -24  182.61   12.80
   1  -4 -24  211.95   14.91
  -1  -4  24  196.04   24.75
   1   4  24  234.14   16.33
   1   4 -24  210.46   14.14
  -1  -4 -24  221.24   15.08
  -1   4 -25    3.78    1.85
  -1   4 -25    0.61    0.87
   1  -4 -25    0.77    1.56
  -1  -4  25    1.75    1.71
   1   4 -25    2.77    1.42
  -1  -4 -25    0.78    1.94
   1  -4  25    5.93    2.67
  -1   4 -26    3.78    1.20
  -1   4 -26    4.80    1.07
   1  -4 -26    4.28    2.17
  -1  -4  26    4.27    1.54
   1   4 -26    5.55    1.53
  -1  -4 -26    4.01    2.20
   1  -4  26    5.41    1.66
  -1   4 -27   44.79    6.54
   1  -4 -27   54.46    8.99
  -1  -4  27   49.72    8.19
   1   4 -27   52.06    9.38
  -1  -4 -27   54.72   11.13
   1  -4  27   55.98    7.29
   1  -4 -28  116.76   17.07
  -1  -4  28  122.97   21.87
   1   4 -28  128.62   16.72
  -1  -4 -28  112.50   20.84
   1  -4  28  110.89   19.19
   1  -4 -29   23.15    3.91
   1   4  29   20.78    5.58
  -1  -4  29   33.99    5.55
   1   4 -29   27.09    4.27
   1  -4  29   25.74    4.99
  -1  -4 -29   23.22    4.43
   1  -4 -30   50.36   13.46
   1   4  30   40.47    7.05
  -1  -4  30   48.68    5.95
   1   4 -30   49.05    9.44
   1  -4  30   49.72    6.58
  -1  -4 -30   45.98    8.65
   1  -4 -31   10.27    2.92
   1   4  31    5.19    2.41
  -1  -4  31   12.98    3.27
   1   4 -31   10.00    2.15
   1  -4  31   11.63    4.09
  -1  -4 -31   10.00    3.52
  -1   4  31    9.63    2.35
   1  -4 -32    8.98    4.00
   1   4  32    3.67    2.04
  -1  -4  32    5.47    3.07
   1   4 -32    4.32    2.04
   1  -4  32   11.25    2.85
  -1  -4 -32    5.60    2.78
  -1   4  32    5.93    2.83
   1  -4 -33   31.54   16.33
   1   4  33   28.24    9.67
  -1  -4  33   37.26    9.07
   1   4 -33   30.24    6.00
   1  -4  33   37.28    8.13
  -1  -4 -33   33.59    9.15
  -1   4  33   25.59    8.83
   1  -4 -34    7.03    4.18
  -1  -4  34    4.02    2.98
  -1  -4 -34    6.39    3.25
   1  -4  34    9.12    2.73
  -1   4  34    4.49    2.42
   1  -4 -35   20.84    9.44
  -1  -4  35   26.79   10.18
  -1  -4 -35   25.21    9.82
   1  -4  35   22.20    8.17
  -1   4  35   13.90   20.45
   1  -4 -36   12.58    3.34
  -1  -4  36    7.04    3.13
  -1  -4 -36   10.90    2.51
   1  -4  36   12.20    3.21
  -1   4  36    7.60    3.34
   1  -4 -37    3.02    4.55
  -1  -4  37    3.34    5.06
  -1  -4 -37    1.72    2.78
   1  -4  37    2.52    3.86
   1   5   0   60.92    4.99
  -1   5   0   59.95    7.31
   1  -5   0   56.00    5.96
   1  -5   0   47.51    3.66
  -1  -5   0   42.56    3.64
   1   5   1  342.37   12.62
  -1  -5   1  323.58   10.60
   1  -5  -1  324.30   10.83
   1  -5  -1  316.87   10.99
   1   5  -1  342.81   12.59
   1  -5   1  339.95   11.09
  -1  -5  -1  337.62   11.70
   1  -5   1  351.74   12.41
  -1  -5  -1  350.27   11.34
  -1   5   1  347.08   11.91
  -1  -5   2  437.96   14.22
   1  -5  -2  415.52   13.61
  -1   5   2  441.09   14.88
  -1  -5  -2  442.89   14.93
   1  -5   2  427.52   13.73
   1  -5   2  435.93   14.79
  -1  -5  -2  419.26   13.41
   1   5  -2  424.17   14.41
   1   5   3  107.01    8.59
   1  -5  -3  113.16   11.95
  -1  -5   3   99.97    6.69
  -1   5  -3  115.54    8.60
  -1  -5   3   98.97    6.90
  -1  -5  -3  108.04    7.55
   1  -5   3   97.29    6.41
   1   5  -3   99.32    6.98
   1  -5   3  107.37    7.61
  -1   5   3  101.24   12.98
   1   5   4  361.56   12.62
  -1  -5   4  343.91   10.63
  -1   5  -4  375.89   11.76
   1  -5  -4  337.77   10.24
  -1   5   4  381.37   11.66
  -1  -5  -4  357.83   11.29
  -1  -5  -4  346.15   10.02
   1  -5   4  344.56   10.76
   1   5  -4  371.69   11.85
   1   5   5   34.06    3.55
  -1  -5   5   31.09    2.96
  -1   5  -5   33.79    6.47
   1  -5  -5   36.54    6.36
  -1   5   5   37.49    8.87
  -1  -5  -5   40.73    6.99
  -1  -5  -5   23.15    4.21
   1  -5   5   36.96    4.39
   1   5  -5   35.91    6.64
  -1   5  -6  641.76   19.20
   1  -5  -6  605.99   17.55
   1   5   6  626.02   17.65
  -1  -5   6  567.23   16.41
   1  -5   6  587.49   17.33
  -1  -5  -6  651.30   19.22
   1   5   7  176.10   12.73
   1   5   7  181.44    8.60
   1  -5  -7  191.15    6.62
  -1  -5   7  190.43    6.36
  -1   5   7  197.23    6.71
   1   5  -7  169.79   11.25
   1  -5   7  176.01   11.66
  -1  -5  -7  177.19   11.77
   1   5   8   44.22    3.95
  -1  -5   8   46.22    7.05
   1   5   8   47.62    4.61
  -1   5  -8   45.73    3.71
  -1  -5   8   53.68    5.22
  -1  -5  -8   62.19   11.33
   1  -5   8   50.46    3.40
   1  -5   8   52.34   10.15
   1   5  -8   47.06    5.00
  -1   5   8   49.15    4.75
   1   5   9   22.09    3.80
  -1  -5   9   20.85    3.85
   1   5   9   18.58    3.53
  -1   5  -9   23.29    4.06
  -1  -5   9   24.26    3.28
  -1  -5  -9   21.57    3.14
   1  -5   9   20.52    2.58
   1  -5   9   20.76    4.72
   1   5  -9   24.31    5.16
  -1   5   9   19.15    1.81
   1   5  10  111.25   10.24
  -1   5 -10  112.40    6.23
  -1   5 -10  128.63    7.45
  -1  -5  10   96.56    5.30
  -1  -5  10  114.21    9.82
   1  -5  10  100.21    6.28
  -1  -5 -10  105.22    6.15
  -1   5  10  103.73    5.39
   1   5  11  117.15   11.32
   1  -5 -11  131.00    8.21
  -1   5 -11  120.28   12.55
  -1   5 -11  113.59    5.48
  -1  -5  11  130.65   11.50
  -1   5  11  121.13   11.48
  -1  -5 -11  130.35    8.05
   1  -5  11  143.61    8.66
   1   5  12  407.75   22.17
  -1   5 -12  437.61   26.37
  -1   5 -12  421.87   22.30
  -1  -5  12  426.26   24.31
  -1   5  12  442.08   23.62
  -1  -5 -12  438.64   24.00
   1  -5  12  487.41   26.42
   1   5  13   11.92    3.27
  -1  -5  13   10.37    2.05
  -1  -5  13   12.56    2.18
  -1   5 -13   11.98    1.82
  -1   5  13    6.42    1.65
   1   5 -13   10.42    5.39
   1  -5  13   11.18    2.65
  -1  -5 -13    8.61    1.60
  -1   5  13   11.72    1.98
   1   5  14   26.33    7.41
  -1   5 -14   25.42    4.00
  -1  -5  14   29.78    5.29
  -1   5 -14   29.83    5.84
  -1  -5  14   26.14    6.44
   1   5 -14   31.54    7.18
   1  -5  14   28.42    6.50
  -1   5  14   32.63    5.95
   1   5  15  329.19   13.60
  -1  -5  15  371.56   15.73
  -1  -5  15  342.82   14.27
  -1   5 -15  317.31   12.71
  -1   5  15  342.44   13.84
   1   5 -15  339.43   13.92
   1  -5  15  341.02   14.47
  -1  -5 -15  346.12   14.79
   1   5  16  108.60    4.79
  -1   5 -16  120.81    7.43
   1  -5 -16  128.51   20.78
  -1   5 -16  135.99    8.41
  -1   5  16  122.94    6.60
   1   5 -16  134.48    8.16
  -1  -5 -16  129.38   20.32
   1  -5  16  125.26    8.07
   1   5  17  110.02    5.50
  -1   5 -17  112.33    8.03
  -1   5 -17  131.56    7.81
   1  -5 -17  107.53    5.34
  -1   5  17  112.93    4.89
   1   5 -17  132.14    9.59
   1   5 -17  127.39    7.34
  -1  -5 -17  133.29    8.93
   1  -5  17  118.68   13.90
   1   5  18  325.92   16.65
  -1   5 -18  334.49   16.61
  -1   5 -18  342.91   18.66
  -1  -5  18  329.71   17.13
   1  -5 -18  344.16   17.85
   1   5 -18  345.62   17.68
   1  -5  18  377.24   19.97
  -1   5  18  341.44   16.90
   1   5  19   11.06    2.68
  -1   5 -19   21.46    4.17
  -1   5 -19   28.08    7.28
   1   5  19   18.05    3.50
   1  -5 -19   25.81    4.98
   1   5 -19   23.90    3.77
  -1  -5 -19   20.05    3.60
   1   5 -19   20.19    4.82
   1   5  20  127.52   10.69
  -1  -5  20  132.61   11.39
  -1   5 -20  153.63   12.58
   1   5  20  127.89   18.82
  -1   5 -20  137.73   14.09
   1  -5 -20  137.14   11.62
   1   5 -20  128.97   13.07
   1  -5  20  140.12   21.10
   1   5 -20  141.96   11.41
  -1  -5 -20  151.96   12.93
   1   5  21    8.64    2.31
   1  -5 -21    6.79    2.33
  -1   5 -21    9.52    1.68
   1   5  21   10.64    2.27
   1   5 -21   14.54    2.73
  -1  -5 -21   16.90    3.62
   1  -5  21   15.42    3.33
   1   5 -21    9.81    2.09
  -1   5  21   12.22    2.37
   1   5  22   72.80    6.83
   1   5  22   71.96   12.32
  -1   5 -22   63.09    8.82
   1  -5 -22   80.13   12.38
  -1  -5  22   83.44   10.14
   1   5 -22   78.70   14.17
   1  -5  22   76.81   14.42
  -1  -5 -22   94.38   17.77
  -1   5  22   80.99   11.68
  -1   5 -23   29.74    5.83
   1   5  23   28.96    5.09
  -1   5 -23   27.71    6.37
   1  -5 -23   30.31    4.68
  -1  -5  23   34.16    6.19
   1   5 -23   39.39    5.49
   1  -5  23   44.58    7.54
  -1  -5 -23   39.52    7.24
  -1   5  23   34.01    5.41
   1   5  24    1.28    1.32
  -1   5 -24    0.94    1.34
   1  -5 -24    2.30    2.37
  -1  -5  24    5.76    2.22
   1   5 -24    2.76    1.56
  -1  -5 -24    4.37    1.75
   1  -5  24    1.83    1.37
   1   5 -24    1.32    1.20
  -1   5  24    2.32    1.57
  -1   5 -25  194.65    5.63
   1  -5 -25  228.58    8.04
   1   5  25  183.67   23.32
  -1  -5  25  184.07   15.25
   1   5 -25  175.96    9.10
   1  -5  25  212.31    7.19
  -1  -5 -25  190.00   27.05
  -1   5  25  177.02   22.65
  -1   5 -26    4.56    1.49
   1  -5 -26    6.50    2.99
   1   5  26    2.30    1.69
  -1  -5  26    2.30    1.30
   1   5 -26    7.42    2.86
   1  -5  26    7.20    2.72
  -1  -5 -26   -3.41    2.24
  -1   5  26    3.73    2.00
   1  -5 -27   25.47    5.87
   1   5  27   24.54    5.94
  -1  -5  27   23.45    4.10
   1   5 -27   27.40    4.97
   1  -5  27   19.55    5.49
  -1  -5 -27   25.36    5.71
  -1   5  27   24.45    6.57
   1  -5 -28   48.35    8.72
   1   5  28   40.65   10.51
  -1  -5  28   46.72    6.43
   1   5 -28   53.52    6.64
   1  -5  28   60.25    9.14
  -1  -5 -28   44.73    7.38
  -1   5  28   48.45    9.33
   1  -5 -29   31.06    8.26
   1   5  29   25.18    6.36
  -1  -5  29   28.55    5.54
   1   5 -29   31.86    5.62
   1  -5  29   35.89    8.47
  -1  -5 -29   28.27    5.61
  -1   5  29   31.64    7.49
   1  -5 -30    5.28    3.03
   1   5  30    1.95    1.34
  -1  -5  30    2.71    1.70
   1   5 -30    2.54    1.31
   1  -5  30    2.18    1.54
  -1  -5 -30    2.20    1.52
  -1   5  30    3.86    2.45
   1  -5 -31   11.91    3.01
   1   5  31    8.96    4.35
  -1  -5  31   17.17    3.92
   1   5 -31   12.73    2.56
   1  -5  31   19.53    5.13
  -1  -5 -31   11.66    3.88
  -1   5  31   13.24    4.57
   1  -5 -32   19.26    6.18
  -1  -5  32   19.63    5.60
  -1  -5 -32   18.48    6.09
   1  -5  32   26.60    7.50
  -1   5  32   13.86    5.78
   1  -5 -33   22.92    7.30
  -1  -5  33   31.44    8.53
  -1  -5 -33   27.88    9.51
   1  -5  33   28.35    7.75
  -1   5  33   20.72    7.48
   1  -5 -34   19.68    7.54
  -1  -5  34   31.56   10.78
  -1  -5 -34   19.68    7.91
   1  -5  34   24.17    9.38
  -1   5  34   16.31    6.21
   1  -5 -35    3.68    2.24
  -1  -5  35    3.91    2.65
  -1  -5 -35    2.75    4.64
   1  -5  35    3.30    4.95
   1  -5 -36    1.88    3.25
  -1  -5  36   -1.48    2.36
  -1  -5 -36    1.22    2.75
   1  -5  36    1.40    2.22
   1   6   0  452.82   24.82
  -1  -6   0  395.38   21.00
   1   6   1   43.11    8.48
  -1  -6   1   30.30    2.20
   1  -6  -1   40.82    7.64
  -1   6  -1   33.14    2.90
   1  -6  -1   29.76    3.58
  -1   6   1   39.60    7.26
   1  -6   1   37.61    6.23
  -1  -6  -1   32.43    3.36
   1   6  -1   46.85    4.37
   1   6   2   58.65    9.25
  -1  -6   2   52.41    3.59
  -1  -6   2   58.51    6.58
   1  -6  -2   60.19    5.69
   1  -6  -2   53.15    6.81
  -1  -6  -2   65.76    8.01
  -1   6   2   67.32    4.58
   1  -6   2   58.30    5.65
   1   6  -2   56.09    5.49
   1   6   3  401.06   22.86
  -1   6  -3  393.69   21.42
   1  -6  -3  391.86   21.05
  -1  -6   3  386.04   20.95
   1  -6  -3  397.70   21.61
  -1  -6   3  377.90   20.18
   1   6  -3  338.23   18.81
   1  -6   3  381.61   20.28
  -1  -6  -3  362.96   19.29
   1  -6   3  381.95   21.03
   1   6   4  531.93   28.64
   1  -6  -4  607.66   32.34
  -1  -6   4  587.34   31.50
  -1  -6   4  601.18   31.83
  -1   6   4  619.63   33.73
   1  -6   4  583.09   30.82
   1  -6   4  613.76   32.78
   1   6   5  241.98   13.70
  -1  -6   5  249.31   16.04
   1  -6  -5  236.44   13.10
  -1  -6   5  256.56   22.13
  -1   6   5  214.53   12.11
  -1  -6  -5  220.12   11.94
   1  -6   5  253.16   14.17
   1  -6   5  236.87   12.77
   1   6   6  182.68   10.79
  -1  -6   6  172.81   12.42
   1  -6  -6  188.74   10.70
  -1  -6   6  191.81   16.96
  -1   6   6  179.08   10.48
   1  -6   6  181.42    9.98
  -1  -6  -6  225.67   12.88
   1  -6   6  201.15   11.54
   1   6  -6  177.75   10.38
   1   6   7   18.02    2.82
  -1  -6   7   15.57    2.48
   1   6   7   16.08    2.10
   1  -6  -7   10.86    2.46
  -1  -6   7   13.01    1.85
  -1  -6  -7   16.93    2.65
   1  -6   7   10.09    1.53
   1  -6   7   11.41    2.10
   1   6  -7   14.50    2.80
  -1   6   7   11.96    2.36
   1   6   8  130.54   10.17
   1  -6  -8  115.35    6.30
  -1  -6   8  125.05   15.17
  -1   6  -8  126.49   11.65
   1   6   8  124.48   13.62
  -1  -6   8  127.89   12.29
  -1  -6  -8  113.01    6.95
   1   6  -8  123.44   11.57
   1  -6   8  109.96   12.58
  -1   6   8  117.33   11.38
   1  -6   8  116.42    7.97
   1   6   9   93.72    4.60
   1  -6  -9   86.20    8.40
  -1   6  -9   80.10    8.04
   1   6   9   93.19    6.32
  -1  -6   9  103.38   10.64
  -1   6   9   95.25    4.99
  -1  -6  -9   99.96   11.93
   1   6  -9   80.04    8.92
   1  -6   9   86.40   11.35
  -1   6   9   98.36   10.10
   1  -6   9   90.68    8.28
   1   6  10   46.58    6.65
   1   6  10   38.94    5.26
   1  -6 -10   44.80    7.77
  -1  -6  10   49.07    7.42
  -1  -6  10   46.32    7.66
  -1  -6 -10   48.80    7.93
   1  -6  10   45.51    6.76
   1  -6  10   50.55   11.22
  -1   6  10   50.20    6.38
  -1   6  10   55.53   10.36
   1   6  11  108.73   21.28
   1   6  11  107.39    5.28
  -1   6 -11  109.14   15.12
   1  -6 -11  101.56    5.64
  -1  -6  11  103.52    5.42
  -1  -6  11  118.16    8.13
  -1   6  11  104.54    5.14
  -1  -6 -11  103.80    5.97
   1   6 -11  105.94    8.68
  -1   6  11  101.27   11.93
   1   6  12  301.37   15.56
  -1  -6  12  299.09   15.52
  -1   6 -12  295.54   15.68
  -1   6 -12  246.54   12.45
  -1  -6  12  313.24   16.09
   1   6  12  303.93   15.51
  -1   6  12  324.10   16.46
  -1   6  12  296.06   15.53
   1   6  13  195.52   10.46
   1   6  13  207.08   11.07
  -1  -6  13  209.65   11.27
  -1   6 -13  189.98    9.73
  -1   6  13  215.25   11.26
   1   6 -13  213.15   13.60
   1  -6  13  196.29   10.90
  -1  -6 -13  205.59   11.79
  -1   6  13  213.82   19.77
   1   6  14  170.42    9.41
  -1  -6  14  177.97   11.05
   1   6  14  170.71   13.15
   1   6 -14  171.89   12.99
  -1   6  14  170.82   10.26
   1  -6  14  187.15   10.62
  -1  -6 -14  180.05   10.61
  -1   6  14  183.75   10.42
   1   6  15   12.80    3.24
  -1  -6  15   31.12    5.28
   1   6  15   22.25    3.49
   1   6 -15   26.14    7.01
  -1   6  15   25.55    6.80
   1  -6  15   24.54    4.90
  -1  -6 -15   27.96    4.77
  -1   6  15   18.04    6.37
   1   6  16  427.79   21.75
   1   6  16  430.89   21.52
   1   6 -16  448.70   22.48
   1  -6  16  426.83   21.71
  -1   6  16  431.87   21.41
  -1   6  16  437.65   22.28
   1   6  17   62.83   11.74
   1   6  17   67.79    9.44
   1  -6 -17   62.65   10.19
  -1   6 -17   63.41   10.29
   1   6 -17  148.51   27.74
   1   6 -17   70.23   13.22
  -1  -6 -17   77.42   14.35
   1  -6  17   66.92   12.58
  -1   6  17   69.16    8.12
  -1   6  17   67.48    8.09
   1   6  18   62.16    5.64
   1   6  18   69.96    8.82
  -1   6 -18   64.37   10.88
  -1  -6  18   81.88   12.82
  -1   6  18   59.47    7.46
   1  -6  18   66.72    8.20
   1   6 -18   80.72   14.04
  -1  -6 -18   78.75   12.55
  -1   6  18   65.42    9.92
   1   6  19    0.62    0.82
  -1   6 -19    2.49    2.07
  -1  -6  19    2.33    1.27
   1   6  19    0.58    0.82
   1  -6  19    4.51    2.13
   1   6 -19    1.14    1.39
  -1  -6 -19    1.84    1.91
  -1   6  19   -0.10    1.79
   1   6  20  106.28   12.84
   1   6  20   96.01   12.89
  -1   6 -20  105.90   18.14
  -1  -6  20  130.74   19.19
   1   6 -20  125.90    8.71
   1  -6  20  108.32    9.08
   1   6 -20  109.48   11.55
  -1  -6 -20  114.14    8.80
  -1   6  20  104.24   15.35
   1   6  21   17.58    4.38
   1  -6 -21   22.10    5.68
  -1   6 -21   23.00    4.30
  -1  -6  21   24.68    4.38
   1   6  21   22.02    3.60
  -1  -6 -21   20.87    5.01
   1   6 -21   21.29    4.61
   1   6 -21   19.57    4.18
  -1   6  21   20.52    4.15
   1   6  22  266.29    6.50
   1   6  22  304.60    7.00
   1  -6 -22  295.39    7.75
  -1  -6  22  319.27    7.85
   1   6 -22  289.38   23.34
   1   6 -22  294.82    6.67
   1  -6  22  274.08    9.66
  -1  -6 -22  288.99    8.35
  -1   6  22  274.71   28.57
   1   6  23    5.38    1.64
  -1   6 -23    7.23    4.24
   1  -6 -23    6.65    2.83
  -1  -6  23    9.68    2.27
   1   6 -23   11.83    3.37
  -1  -6 -23   10.89    4.60
   1  -6  23   13.20    9.66
   1   6 -23    8.25    2.66
  -1   6  23    8.12    2.42
   1   6  24  132.01   19.03
  -1   6 -24  161.95   15.58
   1  -6 -24  156.47   15.29
  -1  -6  24  137.27   14.74
   1   6 -24  144.91   14.82
  -1  -6 -24  137.13   27.61
   1  -6  24  163.96   25.55
   1   6 -24  116.38   17.81
  -1   6  24  136.58   21.06
  -1   6 -25    6.63    1.96
   1  -6 -25    7.89    2.20
   1   6  25    4.25    1.49
  -1  -6  25    7.76    2.49
   1  -6  25    4.34    1.33
  -1  -6 -25    5.78    2.32
  -1   6  25    5.34    2.35
  -1   6 -26   15.80    4.89
   1   6  26   15.31    5.08
  -1  -6  26   20.29    5.26
   1  -6  26   24.46    5.16
  -1  -6 -26   17.23    5.35
  -1   6  26   16.61    5.63
   1  -6 -27   30.07    6.15
   1   6  27   21.09    5.29
  -1  -6  27   33.87    5.92
   1   6 -27   29.97    6.98
   1  -6  27   34.80    7.17
  -1  -6 -27   28.66    7.78
  -1   6  27   32.63    7.70
   1  -6 -28  152.21   18.44
  -1  -6  28  137.31   22.16
  -1  -6 -28  142.06   24.42
   1  -6  28  155.97   22.53
  -1   6  28  115.83   23.11
   1  -6 -29   39.48    9.46
  -1  -6  29   43.47    7.42
  -1  -6 -29   38.48    7.60
   1  -6  29   50.37    8.68
  -1   6  29   30.43    7.22
   1  -6 -30   73.07   19.39
  -1  -6  30   91.46   20.72
  -1  -6 -30   79.62   20.70
   1  -6  30   93.11   20.60
  -1   6  30   73.99   18.49
   1  -6 -31    0.82    1.39
  -1  -6  31    2.14    1.74
  -1  -6 -31    1.11    2.21
   1  -6  31    3.38    2.00
  -1   6  31    1.70    1.64
   1  -6 -32   10.85    4.06
  -1  -6  32   12.76    4.47
  -1  -6 -32    6.33    3.06
   1  -6  32   12.41    4.24
  -1   6  32    5.09    3.16
   1  -6 -33   27.60    9.13
  -1  -6  33   30.42    8.40
  -1  -6 -33   22.74    9.16
   1  -6  33   34.47    9.83
   1  -6 -34    2.97    4.87
  -1  -6  34    0.68    1.57
  -1  -6 -34   -1.86    2.67
   1  -6  34    1.70    2.64
   1  -6 -35    3.95    2.10
  -1  -6 -35    3.33    5.25
   1  -6  35    3.67    1.36
   1   7   0   25.88    6.22
  -1   7   0   26.25    6.04
   1  -7   0   21.63    4.68
  -1  -7   0   24.83    3.55
   1  -7   0   24.30    4.25
  -1  -7   0   19.59    3.32
   1  -7  -1  298.18   13.36
   1  -7  -1  281.51   12.91
  -1  -7   1  274.63   16.42
  -1  -7   1  278.70   11.92
  -1   7   1  266.11   11.64
  -1  -7  -1  275.73   11.93
   1   7  -1  253.50   11.18
   1  -7   1  288.80   14.43
  -1  -7  -1  258.55   10.78
   1  -7   1  290.99   11.82
   1   7   2  214.54    9.77
   1  -7  -2  178.95    8.53
   1  -7  -2  197.64    9.29
  -1  -7   2  186.07    8.50
  -1   7   2  182.61    8.41
   1  -7   2  183.22    7.99
  -1  -7  -2  171.96   10.31
   1  -7   2  171.40   10.84
   1   7   3   78.94    8.49
   1  -7  -3   65.86    6.59
  -1  -7   3   60.02    6.01
  -1   7  -3   81.54   10.57
  -1  -7   3   75.00    9.25
   1   7  -3   66.19    6.98
   1  -7   3   62.25    7.93
  -1  -7  -3   72.90   10.98
   1  -7   3   68.12   12.09
  -1   7   3   63.97    6.83
   1   7   4   63.24    6.78
  -1  -7   4   55.44    8.66
  -1   7  -4   70.95   13.36
  -1  -7   4   54.20    7.66
   1  -7  -4   63.41   11.45
  -1   7   4   57.54    5.91
   1  -7   4   60.73   12.43
   1  -7   4   53.08    6.05
   1   7   5  337.57   14.32
   1  -7  -5  362.34   17.29
  -1  -7   5  326.43   13.67
  -1  -7   5  330.37   13.38
   1   7  -5  330.77   14.16
   1  -7   5  331.72   13.24
  -1   7   5  299.98   12.97
   1   7   6  162.95    9.90
   1  -7  -6  155.92    8.84
  -1  -7   6  148.51   11.72
  -1   7  -6  147.00    9.15
   1   7  -6  142.14    9.36
  -1   7   6  138.61    9.09
   1  -7   6  145.13    7.59
  -1  -7  -6  123.03    7.28
   1   7   7  534.37   27.65
  -1  -7   7  520.94   26.00
  -1   7  -7  474.96   26.04
   1  -7  -7  534.64   26.84
  -1  -7   7  512.34   26.67
  -1  -7  -7  506.42   25.38
   1  -7   7  534.07   26.87
  -1   7   7  588.31   29.30
  -1   7   7  530.78   26.61
   1   7   8  141.44   10.09
  -1   7  -8  167.83   11.36
   1  -7  -8  184.45   10.24
  -1  -7   8  168.59   16.56
  -1   7   8  159.51    8.92
  -1  -7  -8  189.32   17.56
   1  -7   8  162.62   11.79
  -1   7   8  181.69   15.81
   1   7   9  312.10   20.07
  -1  -7   9  329.53   17.04
  -1   7  -9  313.03   22.41
   1  -7  -9  328.54   17.00
  -1   7   9  318.72   17.02
   1  -7   9  327.72   17.25
  -1   7   9  341.30   17.75
   1   7  10  329.67   17.45
   1  -7 -10  310.45   17.17
   1   7  10  302.34   19.33
  -1   7  10  307.33   18.46
   1  -7  10  317.05   16.73
  -1   7  10  333.59   26.65
   1   7  11  180.58    9.92
  -1   7 -11  198.36   12.85
   1  -7 -11  189.62   10.47
   1   7  11  186.92   16.67
  -1   7  11  190.06   11.07
   1  -7  11  221.78   12.15
  -1   7  11  206.72   20.26
   1   7  12   17.17    3.78
   1   7  12    9.73    2.28
  -1   7 -12   16.71    3.57
   1  -7 -12   15.91    3.41
  -1  -7  12   11.01    2.66
  -1  -7 -12   14.50    2.85
   1  -7  12   18.38    3.99
  -1   7  12   18.93    3.38
  -1   7  12   16.56    3.68
   1   7  13   22.54    4.31
  -1  -7  13   22.54    2.81
  -1   7 -13   21.97    5.22
   1  -7 -13   24.00    3.13
  -1  -7  13   21.01    3.30
   1   7  13   21.35    2.43
  -1   7  13   19.99    6.46
  -1  -7 -13   28.91    5.78
  -1   7  13   18.10    2.96
   1  -7  13   21.33    4.85
   1   7  14   37.38    7.90
   1   7  14   28.45    3.54
  -1  -7  14   24.66    4.18
   1  -7 -14   27.87    3.27
  -1  -7  14   29.98    6.06
   1   7 -14   26.04    4.71
   1  -7  14   27.37    6.79
  -1  -7 -14   28.61    5.60
  -1   7  14   27.10    5.91
  -1   7  14   22.89    4.03
   1   7  15   75.83   13.27
  -1  -7  15   76.14   11.66
   1   7  15   55.77    9.42
  -1   7 -15   71.46   11.62
   1  -7 -15   59.54   10.44
  -1  -7  15   70.74    9.81
  -1  -7 -15   75.86   12.31
   1  -7  15   72.71   13.62
  -1   7  15   76.56    7.04
   1   7 -15   69.94   13.51
  -1   7  15   69.98    9.97
   1   7  16   12.16    3.26
   1   7  16    8.28    1.74
  -1  -7  16   10.21    2.55
   1  -7 -16   10.66    2.23
  -1  -7  16    7.82    1.89
   1   7 -16    7.73    1.71
   1  -7  16    9.26    2.18
  -1  -7 -16    6.95    2.18
  -1   7  16    7.67    2.53
  -1   7  16   10.70    2.50
   1   7  17   72.01    9.81
   1   7  17   57.24    8.66
  -1   7 -17   68.74   13.85
   1  -7 -17   75.18   15.00
  -1  -7  17   78.81   12.64
   1   7 -17   70.17   13.18
  -1  -7 -17   71.57   14.20
   1  -7  17   75.18   10.99
  -1   7  17   76.48    8.72
  -1   7  17   73.86   10.82
   1   7  18  110.75   11.72
   1  -7 -18  102.60   19.20
  -1   7 -18  107.09   19.07
   1   7  18  108.58   13.13
   1   7 -18  101.89   18.68
  -1  -7 -18  109.84   20.52
   1  -7  18  125.83   16.15
  -1   7  18  107.27   11.19
  -1   7  18  114.38   17.90
   1   7  19    8.72    1.78
  -1   7 -19    8.57    2.91
   1  -7 -19   13.20    2.72
   1   7  19    8.62    1.78
   1   7 -19    9.81    2.34
  -1  -7 -19    8.84    4.11
   1  -7  19   16.45    4.17
  -1   7  19   10.27    2.27
   1   7  20   22.62    6.24
   1   7  20   26.93    7.02
  -1   7 -20   26.81    6.24
  -1  -7  20   37.23    8.74
   1   7 -20   32.43    4.99
   1  -7  20   36.57    8.78
   1   7 -20   30.43    7.83
  -1  -7 -20   29.93    7.45
  -1   7  20   34.38    6.65
   1   7  21  108.70   11.16
   1   7  21  105.65   16.17
  -1   7 -21   92.55   20.97
  -1  -7  21  139.95   20.00
   1   7 -21  120.89   12.22
   1  -7  21  121.28   24.13
   1   7 -21  101.78   14.18
  -1  -7 -21  123.91   20.67
  -1   7  21  118.36   19.27
  -1  -7  22    3.57    1.39
   1   7  22    3.12    1.27
  -1  -7 -22    0.79    1.16
   1   7 -22    3.61    1.17
   1   7 -22    1.98    0.98
  -1   7  22    2.85    0.99
   1  -7 -23   50.39    7.91
  -1   7 -23   35.76    9.03
  -1  -7  23   45.69    7.52
   1   7 -23   32.57    8.66
  -1  -7 -23   41.64    8.01
   1  -7  23   44.39   10.09
   1   7 -23   29.18    7.57
  -1   7  23   38.68    7.27
  -1   7 -24   49.48   12.35
   1  -7 -24   68.62   11.79
  -1  -7  24   71.72   10.15
  -1  -7 -24   64.33   13.44
   1  -7  24   77.42   10.95
  -1   7 -25    6.23    2.41
  -1  -7  25    8.40    2.85
  -1  -7 -25    1.87    1.40
   1  -7  25    4.25    2.02
  -1   7 -26   -0.16    1.68
  -1  -7  26    2.34    2.22
  -1  -7 -26    1.54    1.79
   1  -7  26    5.56    2.90
  -1  -7  27    2.54    1.45
  -1  -7 -27    5.73    3.05
   1  -7  27    3.16    1.75
   1  -7 -28    9.92    4.90
  -1  -7  28   18.94    4.43
  -1  -7 -28   13.46    5.58
   1  -7  28   13.78    3.52
  -1   7  28   12.65    3.41
   1  -7 -29    0.70    1.40
  -1  -7  29    2.45    1.55
  -1  -7 -29    1.69    1.92
   1  -7  29    1.45    1.22
  -1   7  29    3.03    1.78
   1  -7 -30    7.78    3.47
  -1  -7  30    9.01    3.20
  -1  -7 -30    7.23    4.40
   1  -7  30    8.74    3.22
   1  -7 -31    1.19    1.62
  -1  -7  31    1.20    1.28
  -1  -7 -31    2.80    1.75
   1  -7  31    1.94    1.47
   1  -7 -32   13.59    6.79
  -1  -7 -32   15.73    5.52
   1  -7  32   20.46    5.20
   1  -7 -33    1.06    2.59
  -1  -7 -33    4.13    2.05
   1  -7  33    2.95    4.41
   1   8   0  273.39   14.67
  -1   8   0  257.45   13.83
   1  -8   0  307.45   15.57
  -1  -8   0  287.77   16.25
  -1  -8   0  283.82   14.39
   1   8   1  154.16   10.08
  -1  -8   1  131.79   13.37
  -1   8  -1  130.68   11.32
   1  -8  -1  146.83   13.04
  -1   8   1  152.58    9.90
  -1  -8  -1  147.30   18.59
   1  -8   1  144.89    9.10
  -1  -8  -1  135.03    7.82
   1   8  -1  161.37   16.29
   1   8   2  174.57   10.41
   1  -8  -2  155.08    8.52
  -1   8  -2  157.14   15.31
  -1   8   2  148.86    8.67
   1   8  -2  167.04   14.46
  -1  -8  -2  154.83   16.14
   1  -8   2  157.17    8.45
   1   8   3  265.73   14.80
  -1  -8   3  272.22   14.41
  -1   8  -3  234.60   14.04
  -1  -8   3  234.19   12.07
  -1   8   3  242.56   13.10
   1  -8   3  255.19   12.96
  -1  -8  -3  258.30   13.88
   1   8   4  137.63   12.30
   1  -8  -4  148.74   11.92
  -1   8  -4  133.12    9.79
  -1  -8   4  131.49    7.39
   1   8  -4  125.71   17.02
  -1  -8  -4  127.43   15.70
  -1   8   4  113.01    6.91
  -1  -8   5  505.78   24.94
  -1   8  -5  554.85   28.08
  -1   8   5  504.63   26.64
   1   8  -5  447.55   23.64
   1   8   6  223.85   19.93
  -1  -8   6  209.33   20.47
  -1   8  -6  192.60   15.62
  -1   8   6  190.99   16.29
   1   8  -6  199.97   16.07
   1   8   7   33.05    6.63
   1  -8  -7   30.49    6.60
  -1   8  -7   32.77    5.58
  -1  -8   7   25.04    2.91
  -1   8   7   34.56    6.47
   1   8  -7   39.92    8.75
  -1  -8  -7   31.06    5.44
   1  -8   7   31.33    5.47
   1   8   8   86.07    8.55
   1  -8  -8   94.00    9.98
  -1  -8   8   83.61    7.71
  -1   8  -8   84.29    7.90
  -1  -8   8   84.66   13.85
   1   8  -8   90.42   11.40
  -1  -8  -8   93.64   13.02
  -1  -8  -8   71.96   10.80
   1  -8   8   86.88   15.59
  -1   8   8   84.31    8.72
   1   8   9   56.12   11.76
  -1  -8   9   46.40    7.84
  -1   8  -9   43.49    8.45
   1   8  -9   52.73    9.79
  -1  -8  -9   55.21    9.78
  -1   8   9   55.37   11.08
  -1  -8  -9   37.69    6.86
   1  -8   9   47.91    6.91
   1   8  10  116.33   19.15
  -1  -8  10  114.93   12.57
  -1   8 -10  105.60   12.30
  -1   8  10  108.75   22.10
   1   8 -10  118.53   19.07
  -1  -8 -10  106.68    7.89
   1  -8  10  121.73    9.35
  -1   8  10  109.24   17.97
   1   8  11  372.53   23.98
  -1   8 -11  345.34   22.26
  -1  -8  11  362.99   22.96
  -1   8  11  372.47   24.87
   1  -8  11  364.27   26.90
  -1   8  11  386.08   24.53
   1   8  12   68.40   12.05
  -1  -8  12   53.13    8.58
  -1   8 -12   59.32    8.48
   1  -8 -12   61.14   13.24
  -1   8  12   58.11   10.69
   1  -8  12   64.85   14.03
  -1   8  12   59.35   10.65
   1   8  13   30.23    5.39
  -1  -8  13   24.78    3.56
  -1   8 -13   28.47    4.90
   1  -8 -13   23.35    6.20
  -1   8  13   30.33    6.74
   1  -8  13   36.49    6.40
   1   8  14   42.50    7.32
   1  -8 -14   34.65    7.69
  -1  -8  14   36.70    5.01
  -1   8 -14   40.51    7.25
  -1   8  14   36.06    8.89
   1   8 -14   37.28    7.22
   1  -8  14   37.03    6.61
   1   8  15  120.03   11.38
  -1  -8  15   87.37    9.64
   1  -8 -15  103.94   14.61
  -1  -8  15   95.94    6.25
   1   8 -15   91.15   14.01
  -1   8  15   86.26   13.75
   1  -8  15   93.39   13.04
   1   8  16  157.81    9.93
  -1  -8  16  159.84    9.39
   1  -8 -16  176.16    6.85
   1   8 -16  156.73   17.68
  -1   8  16  154.32    5.05
   1  -8  16  166.02   10.92
   1   8  17   38.54    9.96
   1  -8 -17   40.02    7.17
  -1  -8  17   42.65    7.23
  -1   8 -17   40.95    8.37
  -1   8  17   29.62    6.86
   1   8 -17   39.06    7.89
   1  -8  17   48.13   10.33
   1   8  18   66.29   10.96
  -1   8 -18   65.37   12.78
   1  -8 -18   65.85   17.42
   1   8 -18   61.73   11.71
  -1  -8 -18   69.39   14.84
   1  -8  18   85.41   14.96
   1   8  19   51.09    9.36
  -1   8 -19   52.37   10.37
   1  -8 -19   50.23   10.86
  -1  -8 -19   57.01   11.21
  -1   8  19   74.29   12.58
   1   8  20    7.26    1.72
  -1   8 -20    7.03    2.28
   1  -8 -20    4.12    2.48
  -1  -8  20   10.86    2.45
   1   8 -20    4.85    1.78
  -1  -8 -20    6.00    1.94
  -1   8  20    7.82    2.19
  -1   8 -21   35.28   10.84
   1  -8 -21   38.06    9.65
  -1  -8  21   47.17    6.00
   1   8 -21   31.23    7.16
  -1  -8 -21   39.95    8.78
   1  -8  21   50.06    8.78
  -1   8  21   35.97    6.60
  -1   8 -22    4.16    2.31
   1  -8 -22    2.21    1.49
  -1  -8  22    3.57    1.73
   1   8 -22    1.70    1.11
  -1  -8 -22   -0.01    1.54
   1  -8  22   10.58    5.46
  -1   8  22    2.70    2.08
   1  -8 -23   28.10    7.84
  -1  -8 -23   33.27    9.77
  -1   8  23   31.70    6.77
  -1   8 -24  164.97   20.42
   1  -8 -24  166.40   19.84
  -1  -8  24  155.99   24.88
  -1  -8 -24  170.26   21.38
  -1   8  24  161.63   19.33
  -1   8 -25    8.05    4.00
   1  -8 -25    4.69    3.30
  -1  -8  25    2.88    1.45
  -1  -8 -25    5.91    3.17
   1  -8  25    8.22    4.39
  -1   8  25    6.95    3.79
   1  -8 -26    3.48    2.73
  -1  -8  26    6.42    2.72
  -1  -8 -26    4.20    2.74
   1  -8  26    5.85    2.91
  -1   8  26    2.49    1.51
  -1  -8  27    9.09    2.44
  -1  -8 -27    4.89    3.11
   1  -8  27    9.13    3.00
  -1  -8  28   31.76    9.25
  -1  -8 -28   28.08   10.83
   1  -8  28   45.51   11.89
  -1  -8 -29   14.10    6.17
   1  -8  29   19.02    7.03
   1  -8 -30    7.09    3.53
  -1  -8 -30    4.94    3.29
   1  -8  30    9.17    3.57
  -1  -8 -31   -0.59    2.63
   1   9   0   60.67   10.97
  -1   9   0   56.19    5.46
   1   9   1   78.03    7.23
   1  -9  -1   67.34    7.20
  -1  -9   1   60.21   11.43
  -1   9  -1   88.87   15.07
  -1  -9   1   58.07    5.55
   1   9  -1   76.80   14.79
  -1   9   1   73.21   12.60
   1   9   2   27.59    4.21
  -1  -9   2   19.54    4.36
  -1   9  -2   28.07    4.93
   1  -9  -2   18.48    3.69
  -1  -9   2   27.32    4.44
  -1   9   2   29.43    5.76
  -1  -9  -2   25.45    5.77
   1  -9   2   30.71    5.47
   1   9  -2   26.26    4.08
   1   9   3   47.71   10.39
  -1  -9   3   44.12    7.72
  -1   9  -3   58.89    8.73
   1  -9  -3   45.31   10.60
  -1  -9   3   45.93    9.21
  -1   9   3   48.76    7.21
  -1  -9  -3   51.33    7.61
   1  -9   3   47.09    9.73
   1   9  -3   48.22    9.91
   1   9   4   13.10    2.88
   1  -9  -4   12.21    2.47
  -1   9  -4   14.76    2.93
  -1  -9   4   13.20    3.24
  -1   9   4   12.99    3.33
   1   9  -4    7.71    1.57
  -1  -9  -4   11.79    2.07
   1  -9   4   15.09    2.45
   1   9   5   79.02   15.00
   1  -9  -5   61.12   13.27
  -1   9  -5   68.31   12.75
  -1  -9   5   56.72   11.24
  -1   9   5   72.29   13.32
   1   9  -5   76.56   12.18
  -1  -9  -5   67.71   14.37
   1  -9   5   83.20   15.39
   1   9   6  101.05   11.67
   1  -9  -6   96.85   18.48
  -1  -9   6  107.05   15.38
  -1   9  -6  111.65   12.43
   1  -9  -6  152.50   16.81
  -1  -9   6  102.02   17.12
  -1  -9  -6  122.07   16.87
   1   9  -6  114.25   22.33
   1  -9   6  125.19   14.91
  -1   9   6  140.20   20.16
   1   9   7    5.47    1.40
  -1   9  -7    8.89    1.96
   1  -9  -7    5.25    1.38
  -1  -9   7    6.36    1.88
   1  -9  -7    6.26    1.45
  -1   9   7    7.98    2.40
  -1  -9  -7    6.59    1.97
   1  -9   7    8.38    1.84
   1   9   8    2.13    1.24
   1  -9  -8    2.42    1.48
  -1  -9   8    1.72    0.52
  -1   9  -8    2.16    1.53
   1  -9  -8    4.48    1.23
  -1  -9   8    1.78    0.77
  -1  -9  -8    4.58    1.65
   1   9  -8    4.84    1.55
   1  -9   8    5.53    2.09
  -1   9   8    6.15    1.45
   1   9   9    6.62    2.19
   1  -9  -9    8.76    3.04
  -1   9  -9    5.43    1.60
   1  -9  -9    3.85    1.25
  -1  -9   9    7.43    1.97
  -1   9   9    7.01    1.38
  -1  -9  -9    6.80    2.19
   1   9  -9    6.01    1.81
   1   9  10   39.14    7.29
  -1  -9  10   39.82    4.85
  -1  -9  10   33.72    8.12
  -1   9 -10   38.12    8.95
   1   9 -10   42.16    8.37
  -1   9  10   38.58   10.45
   1  -9  10   43.69    6.03
  -1  -9 -10   44.17    5.93
   1   9  11   17.10    3.97
  -1  -9  11   15.47    4.06
  -1   9 -11   17.14    3.48
  -1  -9 -11   21.51    6.00
  -1   9  11   19.72    4.58
   1   9  12   23.80    5.67
  -1   9 -12   19.06    5.70
   1  -9 -12   17.29    5.58
  -1  -9  12   18.87    5.24
  -1   9  12   20.16    5.09
  -1  -9 -12   17.30    4.42
   1   9  13   66.46   12.96
  -1  -9  13   54.95    9.65
  -1   9 -13   63.81   13.77
   1  -9 -13   58.97   12.00
  -1   9  13   63.07    8.38
   1  -9  13   66.94   12.85
  -1   9  13   57.44    9.36
   1   9  14    1.98    0.97
  -1  -9  14    2.06    1.19
   1  -9 -14   -0.41    1.86
  -1   9  14    1.87    1.11
  -1  -9 -14   -2.62    1.94
   1   9 -14    3.57    1.77
  -1   9  14    3.62    0.97
   1   9  15    9.87    2.71
  -1  -9  15    7.62    2.58
   1   9 -15    7.77    2.85
  -1  -9 -15    8.80    2.14
  -1   9  15    8.08    2.57
  -1   9  15    8.10    2.21
   1   9  16    3.40    1.10
  -1   9 -16    6.39    2.07
  -1   9  16    4.88    1.45
   1   9 -16    7.62    2.15
  -1   9  16    4.06    1.10
   1   9  17   52.47   13.47
   1   9 -17   67.81   13.73
  -1   9  17   56.26   10.53
   1   9  18   87.16    8.93
  -1   9 -18   87.28   21.06
   1  -9 -18   78.26   19.47
   1   9 -18   87.39   19.42
   1  -9  18  114.90   13.30
  -1   9  18   76.41   12.93
   1   9  19   27.31    6.11
  -1   9 -19   31.58    8.66
   1  -9 -19   30.98    8.39
  -1  -9  19   37.34    9.87
   1  -9  19   49.27    6.66
  -1   9  19   28.03    8.77
   1  -9 -20   53.72   15.49
  -1  -9  20   63.01   12.68
  -1  -9 -20   70.49   16.91
  -1   9  20   50.24   13.53
  -1   9 -21   37.07   12.70
   1  -9 -21   33.23   16.89
  -1  -9  21   52.62    9.05
   1   9 -21   39.17   12.16
   1  -9  21   56.66    8.64
  -1   9  21   37.22    9.33
  -1   9 -22   17.11    6.18
   1  -9 -22   16.86    5.56
  -1  -9  22   23.95    6.01
   1   9 -22   18.32    6.13
   1  -9  22   34.86    8.04
   1  -9 -23   27.48    9.35
   1  -9  23   34.65    7.17
   1  -9 -24    4.16    2.16
   1  -9  24    1.81    1.12
   1  -9 -25    7.06    4.42
  -1  -9 -25   12.59    5.57
   1  -9  25   16.81    6.11
   1  -9 -26    9.61    4.45
  -1  -9 -26   11.41    4.68
   1  -9  26   19.04    6.69
   1  -9 -27   19.88    4.63
  -1  -9 -27   16.80    6.15
   1  -9  27   24.13    6.06
  -1  -9 -28   10.88    5.29
   1  10   0    4.41    2.94
  -1  10   0    2.35    1.22
  -1 -10   0    2.97    1.85
   1  10   1   94.25   20.76
  -1  10  -1  111.85   12.78
   1  10  -1  107.63   18.94
  -1  10   1  121.21   13.70
  -1 -10  -1   86.63   17.47
   1 -10   1  107.89   17.64
   1  10   2   65.13   13.51
  -1  10  -2   75.13   12.33
   1  10  -2   57.80   11.32
  -1  10   2   76.52   14.38
  -1 -10  -2   55.28   13.35
   1 -10   2   74.82   13.53
   1  10   3  146.98   14.55
  -1 -10   3  161.09   15.56
  -1  10  -3  150.17   15.18
   1  10  -3  153.93   24.62
  -1 -10  -3  166.04   16.02
  -1  10   3  166.13   18.71
   1 -10   3  154.79   15.90
   1  10   4   36.61    6.59
  -1 -10   4   34.98    7.03
  -1  10  -4   38.76    7.37
   1  10  -4   35.86    7.36
  -1 -10  -4   30.86    6.97
  -1  10   4   36.22    6.60
   1 -10   4   39.66    5.14
   1  10   5   45.15   10.14
  -1 -10   5   44.71    9.42
  -1  10  -5   54.88   13.96
   1  10  -5   59.31   14.16
  -1 -10  -5   52.35    9.66
  -1  10   5   61.73   11.06
   1 -10   5   60.02    9.01
   1  10   6   48.40    7.17
  -1 -10   6   39.12    8.78
  -1  10  -6   45.69   10.14
  -1  10   6   50.42    9.54
   1  10  -6   53.06   12.30
   1 -10   6   56.23    8.85
   1  10   7    5.97    1.92
   1 -10  -7    2.75    1.50
  -1 -10   7    6.26    2.13
  -1  10  -7    6.48    2.31
   1  10  -7    7.10    2.53
  -1  10   7    7.23    2.18
   1 -10   7    6.54    1.59
   1  10   8   23.89    6.88
   1 -10  -8   15.49    5.08
  -1  10  -8   17.04    6.03
  -1  10   8   25.66    8.48
   1  10  -8   25.23    6.28
   1  10   9  156.98   15.62
   1 -10  -9  173.65   35.87
  -1  10  -9  142.43   23.71
  -1  10   9  166.77   17.86
   1  10  -9  152.30   19.43
   1  10  10   19.29    5.57
  -1  10 -10   28.96    4.75
   1  10 -10   15.95    4.68
  -1  10  10   20.42    6.22
  -1 -10 -10   25.11    6.56
   1  10  11   23.03    5.25
   1 -10 -11   19.46    5.71
  -1  10 -11   22.71    5.18
  -1  10  11   20.55    7.18
   1  10 -11   18.13    4.93
  -1 -10 -11   22.62    3.73
   1 -10  11   24.25    4.70
   1  10  12   32.45    5.64
  -1  10 -12   31.95    5.29
   1 -10 -12   29.19    7.63
   1 -10 -12   40.42    6.70
  -1  10  12   36.22   10.23
  -1 -10 -12   42.64    8.61
   1 -10  12   32.15    3.92
   1  10  13   11.70    4.03
   1 -10 -13    9.84    3.46
  -1  10 -13    6.40    2.25
   1 -10 -13    1.91    1.30
  -1  10  13    7.39    3.02
   1  10 -13    7.31    4.31
  -1 -10 -13    7.85    3.02
   1 -10  13    8.47    3.25
   1  10  14   -0.18    1.76
   1 -10 -14   10.12    4.42
  -1  10 -14    2.44    2.72
   1 -10 -14    1.06    1.24
  -1  10  14    1.11    0.91
   1 -10  14    3.38    1.86
   1  10  15   43.86   11.11
   1 -10 -15   42.61   11.12
   1  10 -15   40.03   10.38
   1  10  16   59.88   13.97
   1 -10 -16   64.44   17.39
  -1 -10 -16   61.69   15.63
   1  10  17  105.20   17.99
   1 -10 -17  122.97   56.45
  -1 -10 -17  109.33   27.42
  -1  10 -18    4.70    3.34
   1 -10 -18    1.65    1.34
   1  10 -18    0.31    1.28
  -1 -10 -18    4.95    3.73
  -1  10 -19   29.03   16.30
   1 -10 -19   21.07    8.23
  -1 -10 -19   33.84   10.32
   1 -10  19   40.85    8.86
  -1  10 -20    7.67    4.17
   1 -10 -20    5.56    3.10
   1  10 -20    8.36    4.58
  -1 -10 -20    1.50    2.72
   1 -10  20   10.95    2.89
  -1  10 -21   52.18   19.22
  -1 -10 -21   65.22   18.07
   1 -10  21   80.46   18.86
  -1  10 -22   23.45   11.69
  -1 -10 -22   26.02    8.54
  -1 -10 -23   32.74   10.44
   1  11   0   30.37    6.63
  -1  11   0   28.23    7.84
   1 -11   0   25.25    4.91
   1  11   1   34.54    7.70
   1 -11  -1   33.67    7.88
  -1  11  -1   43.02    8.48
   1  11  -1   40.69    6.85
  -1 -11  -1   25.65    7.55
  -1  11   1   39.39   17.53
   1 -11   1   38.68   14.18
   1  11   2    7.75    3.47
  -1  11  -2    9.93    3.80
   1  11  -2    6.86    2.76
  -1  11   2    8.06    3.23
  -1 -11  -2    5.51    2.47
   1 -11   2   10.30    3.22
   1  11   3    5.93    2.24
  -1  11  -3    5.19    2.83
   1  11  -3    9.54    4.35
  -1  11   3    7.11    3.10
  -1 -11  -3    4.14    2.06
   1  11   4   12.73    3.07
  -1  11  -4    9.25    3.08
   1  11  -4   14.77    4.19
  -1  11   4   16.73    4.11
  -1 -11  -4    9.86    4.04
   1  11   5   45.45    8.17
  -1  11  -5   46.86    8.39
   1  11  -5   44.76    8.63
  -1  11   5   43.65   11.23
  -1 -11  -5   42.67    8.82
   1 -11   5   56.57    6.55
   1  11   6   72.48   13.89
  -1  11  -6   84.91   13.81
   1  11  -6   85.46   20.50
  -1  11   6   84.29   15.49
  -1 -11  -6   70.16   16.29
   1 -11   6   86.14   10.68
   1  11   7  107.22   13.20
  -1  11  -7  109.27   14.55
   1  11  -7  100.29   23.62
  -1  11   7  126.05   21.89
   1 -11   7  110.90   22.46
   1  11   8   57.20    9.97
   1  11  -8   49.91   13.15
  -1  11   8   61.48   12.64
   1  11   9    6.72    3.42
  -1  11  -9    6.70    3.32
   1  11  -9    4.93    2.04
  -1  11   9    7.22    3.46
  -1 -11  -9    5.11    2.28
   1  11  10   46.09   12.73
  -1  11 -10   52.19   12.36
   1  11 -10   50.15   14.90
  -1  11  10   55.16   13.42
  -1 -11 -10   47.23   10.91
   1  11  11    4.06    2.28
  -1  11 -11    3.86    1.94
   1  11 -11    2.95    1.69
  -1  11  11    3.53    1.65
  -1 -11 -11    3.36    2.34
   1 -11  11    4.45    2.31
   1  11  12   30.98   15.12
  -1  11 -12   30.78    7.74
  -1  11  12   25.31    6.94
  -1 -11 -12   24.42    7.03
   1 -11  12   33.20    7.81
   1  11  13   12.33    3.38
  -1  11 -13   15.61    4.18
   1  11 -13   15.79    4.60
   1  11  14    9.53    3.94
  -1  11 -14   15.68    5.82
  -1  11 -15   29.02   14.46
   1  11 -15   29.63   15.62
   1  11 -16   -2.23    2.17
  -1 -11 -16    2.03    1.77
   1  11 -17   30.59   11.32
  -1 -11 -17   34.83   11.52
  -1  11 -18    6.48    2.76
   1  11 -18    8.06    3.30
  -1  11 -19   15.21    5.35
   1  12   0   76.70   26.09
  -1  12   0   70.58   22.44
   1  12   1    9.39    2.68
  -1  12  -1    5.29    2.80
   1  12  -1    5.85    3.79
  -1  12   1    8.86    3.89
   1  12   2   21.85    7.67
  -1  12  -2   17.05    5.45
   1  12  -2   17.37    6.80
  -1  12   2   15.32    5.16
   1  12   3   27.73    9.36
  -1  12  -3   32.05   10.30
   1  12  -3   26.96    8.27
  -1  12   3   26.76    9.66
   1  12   4   40.98   11.83
  -1  12  -4   37.02   14.18
  -1  12   4   50.09   12.97
   1  12   5    6.57    3.63
  -1  12  -5    5.01    2.63
   1  12  -5    8.39    3.28
  -1  12   5    6.21    3.94
   1  12   6   38.88   11.76
  -1  12  -6   39.70   11.75
   1  12  -6   37.26   14.00
  -1  12   6   41.45   13.08
   1  12   7    2.35    1.93
  -1  12  -7    1.08    1.80
   1  12  -7    1.84    1.59
  -1  12   7    2.14    1.48
   1  12   8   25.91    8.41
  -1  12  -8   25.97    8.85
   1  12  -8   24.17   10.23
  -1  12   8   17.39    8.39
   1  12   9    8.16    3.70
  -1  12  -9    3.99    2.97
   1  12  -9    5.12    2.75
   1  12  10    2.49    1.70
  -1  12 -10    0.68    1.66
   1  12 -10    2.64    1.61
   1  12  11   10.05    4.53
  -1  12 -11   13.14    5.03
   1  12 -11   11.22    4.62
  -1  12 -12   16.77    6.21
   1  12 -12   14.13    5.80
  -1  12 -13    5.81    3.02
  -1  12 -14   13.07    5.92
  -1  12 -15    1.19    2.34
   1  13   0   31.95   13.89
  -1  13   0   35.30   14.22
   1  13   1   16.22    7.07
  -1  13  -1   17.53    7.10
   1  13  -1   16.61    6.63
  -1  13   1   20.61    5.15
   1  13   2   13.43    6.16
  -1  13  -2   11.99    4.04
   1  13  -2    9.89    3.65
  -1  13   2   10.58    3.13
   1  13   3    4.50    2.68
  -1  13  -3    9.81    4.32
   1  13  -3    8.90    3.96
   1  13   4   17.28    5.57
  -1  13  -4   13.18    5.59
   1  13  -4   17.87    6.19
  -1  13  -5   20.56    6.19
   1  13  -5   19.94    7.60
  -1  13  -6   70.03   27.09
   1  13  -6   68.77   25.32
  -1  13  -7   13.07    3.94
   1  13  -7   16.77    6.36
  -1  13  -8    5.57    3.27
   1  13  -8    5.85    2.79
   1  13  -9    0.60    1.97
  -2   0   0 1091.70   23.66
  -2   0   0 1030.33   22.35
  -2   0   0 1036.65   22.23
  -2   0  -1  129.14   18.91
  -2   0   1  126.44    6.49
  -2   0  -1  122.64    5.76
  -2   0   1  128.30    6.21
  -2   0   1  126.79    5.90
  -2   0  -2  815.13   18.17
  -2   0   2  844.41   18.30
  -2   0  -2  766.16   16.82
  -2   0   2  803.16   17.53
   2   0   2  774.94   16.73
  -2   0   2  783.75   17.21
  -2   0  -3 2532.96   53.16
  -2   0   3 2559.83   53.53
  -2   0  -3 2426.07   50.59
  -2   0   3 2459.11   51.48
   2   0   3 2363.04   49.18
  -2   0   3 2580.67   53.84
  -2   0  -4   -1.58    8.07
  -2   0   4    0.12    0.63
  -2   0  -4    0.92    0.59
  -2   0   4    4.84    0.96
   2   0   4    1.19    0.54
  -2   0   4   -1.46    0.97
  -2   0  -5  412.52   18.38
  -2   0   5  427.64    9.70
  -2   0  -5  447.05   10.22
  -2   0   5  412.10   18.62
   2   0   5  414.44   26.17
  -2   0   5  397.06   17.69
  -2   0  -6 1460.17   31.37
  -2   0  -6 1372.88   29.18
  -2   0   6 1359.27   29.17
  -2   0   6 1350.37   29.20
  -2   0  -7  140.54    7.03
  -2   0  -7  136.21    6.53
  -2   0   7  131.99    6.78
  -2   0   7  124.37    6.44
   2   0  -8 1575.97   33.18
  -2   0  -8 1672.90   35.86
  -2   0  -8 1628.32   34.58
  -2   0   8 1600.77   34.84
   2   0  -9  462.72   10.21
  -2   0  -9  418.12   27.02
  -2   0  -9  437.73   10.82
  -2   0   9  443.50   10.69
   2   0 -10  239.88    7.92
  -2   0 -10  230.92    9.78
   2   0 -10  232.82    8.50
  -2   0 -10  235.95    8.16
  -2   0  10  236.24    8.40
   2   0 -11  533.98   16.67
  -2   0 -11  480.15   15.86
   2   0 -11  498.11   16.59
  -2   0 -11  495.65   16.42
  -2   0  11  520.54   17.50
   2   0 -12 1167.67   38.69
  -2   0 -12 1154.46   36.56
  -2   0  12 1146.42   36.67
  -2   0 -13  448.19   16.05
   2   0 -13  477.62   16.07
  -2   0 -13  475.32   16.17
  -2   0  13  468.49   20.97
   2   0 -14 1041.83   29.79
  -2   0 -14 1103.40   32.84
  -2   0  14 1117.79   31.93
  -2   0 -15   11.30    5.93
   2   0 -15    8.88    1.77
  -2   0 -15   10.79    2.04
  -2   0  15    6.85    1.90
  -2   0 -16   78.84   10.26
   2   0 -16   74.26    5.61
  -2   0 -16   78.17    5.65
  -2   0  16   83.44    7.23
  -2   0 -17   60.60    7.37
   2   0 -17   57.44   10.12
  -2   0 -17   58.98    3.65
  -2   0  17   61.32    3.98
  -2   0 -18   51.51    7.82
   2   0 -18   58.37    9.62
  -2   0 -18   64.63    6.60
   2   0  18   54.67    7.51
  -2   0  18   63.78    9.74
  -2   0 -19   43.23    8.30
   2   0 -19   47.64   11.93
  -2   0 -19   48.32    9.74
   2   0  19   41.02    9.20
  -2   0  19   51.88    9.62
  -2   0 -20   30.75    5.76
   2   0 -20   37.50    7.19
  -2   0 -20   34.70    6.64
   2   0  20   30.02    7.03
  -2   0  20   36.46    7.20
   2   0 -21    3.66    2.22
  -2   0 -21    1.26    1.33
   2   0  21    3.83    1.14
  -2   0  21    2.71    1.74
  -2   0 -22   19.33    3.49
   2   0 -22   20.85    3.59
  -2   0 -22   21.03    4.19
  -2   0  22   22.99    4.42
  -2   0 -23   22.94    4.87
   2   0 -23   29.17    6.97
  -2   0 -23   31.52    6.54
  -2   0  23   31.47    6.41
  -2   0 -24   57.08   11.06
   2   0 -24   76.74   10.64
  -2   0 -24   68.63    6.51
  -2   0  24   71.60   13.15
  -2   0 -25    1.32    0.98
   2   0 -25    3.23    1.29
  -2   0 -25    2.65    1.69
  -2   0  25    0.10    1.43
  -2   0 -26  233.07   24.23
   2   0 -26  259.47   26.74
  -2   0  26  253.83   26.62
   2   0 -27   22.80    4.90
  -2   0 -27   25.17    5.61
  -2   0  27   23.12    4.53
   2   0 -28   14.97    3.15
  -2   0 -28   13.58    3.74
   2   0  28   14.85    3.29
  -2   0  28   14.55    4.55
   2   0 -29  233.13   22.44
  -2   0 -29  236.90   26.01
   2   0  29  218.47   23.64
  -2   0  29  246.60   35.96
   2   0 -30    3.68    2.40
  -2   0 -30   -1.02    1.96
   2   0  30    2.23    1.34
  -2   0  30    2.16    1.58
   2   0 -31    7.98    2.32
  -2   0 -31    4.57    1.62
   2   0  31    5.21    1.56
  -2   0  31    7.84    2.27
   2   0 -32    1.95    1.19
  -2   0 -32    1.90    1.21
   2   0  32    4.15    1.99
  -2   0  32    2.86    2.46
   2   0 -33    7.62    3.03
  -2   0 -33    1.70    1.55
   2   0  33    9.37    4.32
  -2   0  33    7.30    3.44
   2   0 -34   51.31    9.91
  -2   0 -34   44.55   11.66
   2   0  34   48.54   11.62
  -2   0  34   42.90   11.74
   2   0 -35   36.24    8.68
   2   0  35   23.91    8.31
  -2   0  35   24.73    7.66
   2   0 -36   18.06    6.81
   2   0  36   14.79    6.05
  -2   0  36   15.47    6.57
   2   0 -37   45.31   11.77
   2   0  37   26.31   10.68
  -2   0  37   33.88   11.23
   2   0 -38    5.05    2.41
  -2   0  38    0.21    1.89
   2   1   0 1376.11   29.45
  -2   1   0 1372.07   29.36
  -2  -1   0 1364.21   29.12
  -2   1   0 1335.83   28.14
  -2  -1   0 1369.65   28.61
  -2   1   0 1361.37   29.43
  -2  -1   1  373.12   16.29
  -2   1  -1  361.69   17.50
  -2   1  -1  373.69   16.38
  -2  -1   1  373.73   16.71
  -2  -1  -1  371.87   16.59
  -2   1   1  370.58   18.16
  -2   1   1  363.14   15.98
   2   1  -1  454.39   10.55
  -2   1   1  369.06   16.45
  -2  -1   2  535.46   12.26
  -2   1  -2  510.80   11.69
  -2  -1   2  536.27   11.69
  -2   1  -2  533.17   11.61
   2   1  -2  591.33   13.19
  -2  -1  -2  517.89   11.83
  -2  -1  -2  539.15   12.36
  -2   1   2  533.21   11.87
   2  -1   2  526.38   11.93
  -2   1   2  539.42   12.96
  -2   1   2  533.19   12.12
  -2  -1   3  972.92   21.27
  -2   1  -3  977.11   21.31
  -2  -1   3  965.29   20.53
  -2   1  -3  946.31   20.08
   2   1  -3  908.01   19.67
  -2  -1  -3  949.84   20.93
  -2  -1  -3  945.02   20.72
  -2   1   3  944.01   20.39
   2  -1   3  944.75   20.58
  -2   1   3  963.37   20.78
  -2   1   3  963.63   20.95
  -2  -1   4   85.92    4.58
  -2   1  -4   76.03   17.32
  -2   1  -4   64.24    3.27
  -2  -1   4   68.71    3.49
   2   1  -4   76.73    3.92
  -2  -1  -4   72.76    3.89
  -2  -1  -4   75.55   11.27
   2  -1   4   64.40    4.25
  -2   1   4   88.17    4.42
  -2   1   4   94.95    4.87
  -2   1  -5 2286.44   48.91
  -2   1  -5 2160.32   44.95
  -2  -1   5 2178.16   46.12
  -2  -1   5 2116.04   44.27
  -2   1   5 2066.79   43.18
  -2  -1  -5 2058.44   44.04
  -2  -1  -5 2145.76   45.32
  -2   1   5 2152.07   45.53
  -2   1  -6  491.57   11.61
  -2  -1   6  504.65   11.51
  -2   1  -6  514.91   11.30
   2  -1  -6  496.15   11.50
  -2  -1   6  504.80   11.89
  -2  -1  -6  498.51   12.14
  -2  -1  -6  485.26   12.32
   2  -1   6  472.88   11.25
  -2   1   6  505.11   11.16
  -2   1   6  494.82   11.60
  -2   1  -7  124.06    7.62
  -2  -1   7  134.23    6.45
   2  -1  -7  118.66    5.85
  -2   1  -7  136.02    6.64
  -2  -1   7  130.42    6.46
  -2  -1  -7  131.05    7.18
  -2  -1  -7  160.93    7.78
   2  -1   7  134.41    6.86
  -2   1   7  140.23    6.43
  -2   1   7  127.28    6.59
  -2   1  -8  402.26   18.33
  -2  -1   8  465.17   11.04
   2  -1  -8  433.22   10.47
  -2   1  -8  417.58   26.43
  -2  -1   8  418.09   26.68
  -2  -1  -8  422.17   15.78
  -2  -1  -8  426.25   10.60
   2  -1   8  436.94   11.58
  -2   1   8  452.56    9.94
  -2   1   8  435.01   10.63
  -2  -1   9 1401.29   44.26
  -2   1  -9 1400.26   44.24
  -2  -1   9 1503.87   47.19
  -2   1  -9 1390.80   43.28
   2   1  -9 1479.59   45.65
  -2   1   9 1487.16   45.76
  -2  -1  -9 1492.17   46.92
   2  -1   9 1504.60   48.03
  -2  -1  -9 1394.89   43.90
  -2   1   9 1380.71   43.45
  -2  -1  10 1443.94   45.87
  -2   1 -10 1352.54   47.14
  -2  -1  10 1481.38   46.72
   2  -1 -10 1367.48   43.69
  -2   1 -10 1423.86   44.19
  -2   1  10 1510.71   46.38
  -2  -1 -10 1410.42   44.52
   2   1 -10 1523.99   47.10
   2  -1  10 1448.32   45.49
  -2  -1 -10 1416.71   44.83
  -2   1  10 1406.63   44.23
   2  -1 -11  106.87    6.82
  -2  -1  11  107.45    8.51
  -2   1 -11   95.55   15.64
   2  -1 -11  102.26    8.67
  -2   1 -11  107.25    7.20
  -2  -1 -11   96.55    6.87
  -2  -1 -11  109.06    8.08
   2  -1  11   93.95    7.79
   2   1 -11   99.98    6.54
  -2   1  11  101.60    7.33
  -2   1 -12  550.05   18.03
  -2   1 -12  543.30   18.03
   2  -1 -12  609.26   20.05
  -2  -1  12  530.38   17.46
  -2  -1 -12  547.09   18.99
   2  -1  12  556.34   18.26
   2   1 -12  591.51   18.68
  -2   1  12  558.63   18.80
  -2   1 -13  261.13    8.53
  -2  -1  13  261.24    9.19
  -2  -1 -13  260.60    8.34
   2   1 -13  283.61    9.43
  -2  -1 -13  269.68    8.93
   2  -1  13  248.32    8.26
  -2   1  13  280.33   11.40
  -2   1 -14   63.30    9.26
  -2   1 -14   80.47    8.45
  -2  -1  14   79.39    9.16
   2   1 -14   84.87    6.31
  -2  -1 -14   69.30    5.57
   2  -1  14   74.34    5.73
  -2   1  14   79.28   12.69
  -2  -1  15  199.98    9.07
  -2   1 -15  204.07    8.55
   2  -1 -15  196.67    8.96
   2   1  15  208.87   10.76
   2   1 -15  189.75    6.80
  -2  -1 -15  194.96    7.00
   2  -1  15  206.43    7.32
   2   1 -15  206.62    6.01
  -2   1  15  181.91    9.30
  -2   1 -16  243.08   13.60
  -2  -1  16  258.92   14.62
   2  -1 -16  250.48   14.23
  -2   1 -16  238.16   13.13
   2   1  16  260.17   14.37
   2   1 -16  231.18   14.64
  -2  -1 -16  249.37   14.09
   2  -1  16  237.93   13.64
  -2  -1 -16  236.13   13.15
  -2   1  16  247.35   14.02
  -2   1 -17   72.53   11.12
   2  -1 -17   76.12   13.27
  -2   1 -17   65.28    4.07
   2   1  17   73.19   12.50
  -2  -1  17   70.33    4.41
  -2  -1 -17   69.42    6.19
  -2  -1 -17   80.40    5.29
  -2   1  17   92.87   14.13
  -2   1 -18  295.83   17.19
   2  -1 -18  304.29   17.02
  -2   1 -18  299.28   16.53
  -2  -1  18  329.19   18.49
  -2  -1 -18  302.41   16.69
  -2  -1 -18  315.33   17.54
   2  -1  18  300.94   17.15
  -2   1  18  316.73   17.78
  -2   1 -19   28.00    5.23
  -2  -1  19   36.47    6.45
   2  -1 -19   29.60    7.20
  -2   1 -19   30.39    5.22
   2   1  19   30.15    5.95
   2   1 -19   33.28    6.31
  -2  -1 -19   35.48    7.13
   2  -1  19   33.18    8.70
  -2  -1 -19   30.83    5.36
  -2   1  19   35.29    7.34
  -2   1 -20   43.47    3.12
   2  -1 -20   41.77    8.34
  -2   1 -20   41.68    4.00
   2   1  20   41.78   10.23
  -2  -1  20   51.44    9.47
   2   1 -20   49.38    5.92
   2  -1  20   47.86    9.02
  -2   1  20   52.24   10.52
   2  -1 -21  392.79   20.50
  -2   1 -21  368.19   18.78
   2   1  21  369.05   18.89
  -2  -1  21  392.40   20.24
   2   1 -21  357.80   18.70
  -2  -1 -21  387.95   19.99
  -2   1  21  395.37   21.71
  -2   1 -22   36.87    6.99
  -2  -1  22   56.70   10.09
   2  -1 -22   45.13    6.58
  -2   1 -22   40.04    9.49
   2   1  22   39.48    9.98
   2   1 -22   44.81    8.28
   2  -1  22   42.04    9.51
  -2  -1 -22   52.13    9.77
  -2   1  22   48.66    8.23
   2   1  23   49.04   11.51
  -2   1 -23   57.80    9.43
   2  -1 -23   78.32   14.07
  -2   1 -23   66.42    8.59
   2   1  23   57.31   13.79
  -2  -1  23   72.18    9.87
   2   1 -23   75.65   11.12
  -2  -1 -23   67.77    8.47
  -2   1  23   75.28   12.51
   2   1  24    4.93    1.44
  -2   1 -24    5.46    1.24
   2  -1 -24    6.21    2.17
  -2   1 -24    7.32    3.04
   2   1  24    5.61    1.99
  -2  -1  24    5.88    1.94
   2   1 -24    7.75    1.43
  -2  -1 -24    4.05    2.03
  -2   1  24    5.93    2.22
   2   1  25   17.91    4.26
  -2   1 -25   15.44    3.33
   2  -1 -25   14.83    4.21
  -2   1 -25   13.55    2.75
   2   1  25   14.49    3.74
  -2  -1  25   19.91    3.68
   2   1 -25   18.72    3.49
  -2  -1 -25   23.00    4.83
  -2   1  25   27.29    4.75
   2   1  26   35.05    6.88
  -2   1 -26   39.92    6.68
   2  -1 -26   55.39    9.43
  -2   1 -26   54.64   10.21
   2   1  26   50.55   10.17
  -2  -1  26   61.15   11.44
   2   1 -26   57.62   10.84
  -2  -1 -26   59.15    7.30
  -2   1  26   59.72   11.12
  -2   1 -27   36.69    9.88
   2  -1 -27   54.83    6.58
  -2   1 -27   52.77    4.06
   2   1  27   54.01   10.89
  -2  -1  27   52.31    6.61
   2   1 -27   57.31    5.93
  -2  -1 -27   56.06    8.11
  -2   1  27   56.00    9.67
   2  -1 -28   10.54    2.38
  -2   1 -28   12.86    3.06
   2   1  28   11.65    3.37
  -2  -1  28   16.62    3.43
   2   1 -28   10.81    2.46
  -2  -1 -28   15.33    3.85
  -2   1  28   11.38    2.65
   2  -1 -29    1.42    0.94
  -2   1 -29    3.18    1.29
   2   1  29    2.24    1.69
  -2  -1  29    2.76    1.67
   2   1 -29    3.06    1.49
  -2  -1 -29    4.45    1.53
  -2   1  29    0.39    1.42
  -2  -1  30    9.13    2.91
   2  -1 -30   11.28    3.45
  -2   1 -30   10.11    2.24
   2   1  30    8.28    2.26
   2   1 -30   12.19    2.62
   2  -1  30   16.03    3.24
  -2  -1 -30    7.94    2.08
  -2   1  30   10.60    4.08
   2  -1 -31   15.16    4.29
  -2   1 -31   12.27    4.37
   2   1  31   15.50    4.66
  -2  -1  31   15.33    4.71
   2   1 -31   10.89    2.76
  -2  -1 -31    9.49    2.89
  -2   1  31   13.76    4.11
   2  -1 -32   11.07    3.72
  -2   1 -32   11.13    4.30
   2   1  32   12.74    4.08
  -2  -1  32   11.58    4.14
   2   1 -32   11.40    3.80
  -2  -1 -32    8.09    3.09
  -2   1  32   12.24    5.44
   2  -1 -33    5.58    2.87
  -2   1 -33    0.96    1.66
   2   1  33    4.23    2.52
  -2  -1  33   11.30    5.13
   2   1 -33    5.00    2.10
  -2  -1 -33    4.34    2.44
  -2   1  33    2.60    1.83
   2   1  34   13.26    3.64
   2  -1 -34   17.86    5.58
  -2  -1  34   19.53    5.22
  -2  -1 -34   17.41    5.08
   2   1 -34   20.10    4.24
  -2   1  34   16.54    4.98
   2   1  35   46.21   14.63
   2  -1 -35   67.04   14.85
  -2  -1  35   83.55   15.37
  -2  -1 -35   46.93   14.77
   2   1 -35   70.54   15.71
  -2   1  35   63.34   15.89
   2   1  36    7.03    2.56
   2  -1 -36    7.58    2.72
  -2  -1  36    5.65    3.01
   2  -1  36    6.09    2.42
   2   1 -36    4.38    2.44
  -2   1  36   10.58    4.07
  -2  -1  37    9.38    4.55
   2  -1 -37   11.33    2.56
   2  -1  37   10.52    2.67
   2   1 -37    9.54    2.92
  -2   1  37    6.40    3.41
   2  -1 -38   30.79    7.54
  -2  -1  38   29.32    7.71
  -2   1  38   24.64    7.45
  -2  -1  39    4.56    1.92
   2   2   0  461.59   10.81
  -2   2   0  404.60   18.04
  -2  -2   0  399.09   17.85
   2  -2   0  455.35   14.20
  -2  -2   0  423.92    8.98
   2   2   1  162.47    7.74
  -2  -2   1  157.79    6.97
  -2  -2   1  164.38   11.26
  -2   2  -1  154.12    7.26
   2   2   1  154.71    6.71
  -2   2   1  147.63    6.97
   2  -2   1  151.53    8.20
  -2  -2  -1  149.26    7.19
   2   2  -1  157.26    7.41
  -2   2   1  155.26    7.54
   2   2   2  169.16    8.07
  -2  -2   2  157.62    7.01
  -2  -2   2  166.15    8.74
  -2   2  -2  152.76    7.46
   2   2   2  134.84    5.83
  -2   2   2  160.89    7.63
   2  -2   2  168.26    7.97
  -2  -2  -2  164.09    7.85
   2   2  -2  174.85    8.20
  -2   2   2  177.25    8.44
   2   2   3  157.33    7.53
  -2  -2   3  152.32    6.84
  -2  -2   3  152.50    7.90
  -2   2  -3  142.96    7.06
  -2   2  -3  148.37    6.53
  -2  -2  -3  138.41    6.79
  -2   2   3  130.09   12.14
   2  -2   3  134.29    6.53
   2   2  -3  147.42    7.03
  -2   2   3  141.03    7.81
   2   2   4  916.56   20.74
  -2  -2   4  824.50   17.86
  -2  -2   4  832.01   18.73
  -2   2  -4  811.50   18.31
  -2   2  -4  818.51   17.06
  -2  -2  -4  830.68   19.21
  -2   2   4  848.42   18.63
   2  -2   4  839.82   19.08
   2   2  -4  833.63   18.92
  -2   2   4  847.99   19.34
   2   2   5  309.00   14.53
   2   2   5  360.69   15.99
  -2  -2   5  323.03   14.84
  -2   2  -5  293.17   14.12
  -2   2  -5  318.72   13.80
  -2  -2   5  327.75   15.23
  -2  -2  -5  325.25   14.90
   2  -2   5  324.79   14.80
   2   2  -5  306.28   13.86
  -2   2   5  284.57   13.32
  -2   2   5  322.25   14.88
   2   2   6  485.00   11.73
  -2  -2   6  443.54   10.14
  -2   2  -6  444.24   11.89
  -2   2  -6  458.07    9.78
  -2  -2   6  448.28   10.97
   2   2   6  457.22   10.38
  -2  -2  -6  446.87   11.12
   2  -2   6  456.08   11.25
  -2   2   6  440.68   10.33
  -2   2   6  466.25   11.33
   2   2   7  150.00    7.37
   2   2   7  167.03    7.53
  -2   2  -7  177.75    9.11
   2  -2  -7  159.63    7.69
  -2   2  -7  177.87   11.27
  -2  -2   7  164.32   11.67
  -2  -2   7  166.60    7.78
  -2  -2  -7  166.23   11.04
   2  -2   7  174.76   11.53
  -2   2   7  155.77    7.41
  -2   2   7  173.97    8.48
   2   2   8   44.16    3.69
   2   2   8   61.90    4.35
  -2   2  -8   56.43    9.56
   2  -2  -8   57.76    4.50
  -2   2  -8   61.32    4.11
  -2  -2   8   63.71    9.53
  -2  -2   8   59.92    5.53
  -2  -2  -8   59.25    4.50
   2  -2   8   58.27    4.46
  -2   2   8   49.99    3.46
  -2   2   8   65.41    9.65
   2   2   9  317.14   10.92
  -2   2  -9  305.42   11.62
  -2  -2   9  339.32   11.38
   2  -2  -9  330.83   11.30
  -2   2  -9  305.61    9.91
   2   2   9  319.94   10.60
  -2  -2   9  308.35   10.71
   2  -2   9  314.35   10.94
  -2  -2  -9  329.58   11.40
  -2   2   9  324.24   10.45
  -2   2   9  303.07   10.56
   2   2  10  588.21   19.73
  -2  -2  10  621.48   20.06
   2  -2 -10  602.53   19.98
  -2   2 -10  654.75   20.57
   2   2  10  633.11   20.33
  -2  -2  10  633.59   20.71
   2  -2  10  649.96   21.17
  -2  -2 -10  620.64   20.61
   2   2 -10  651.79   20.65
  -2   2  10  609.99   20.13
   2   2  11 1127.00   35.76
  -2  -2  11 1184.44   40.93
  -2   2 -11 1178.01   40.99
  -2   2 -11 1173.27   36.48
  -2  -2  11 1169.43   37.99
   2   2  11 1166.63   36.91
  -2   2  11 1216.01   37.53
   2  -2  11 1237.93   40.10
   2   2 -11 1253.04   39.53
  -2   2  11 1175.65   37.64
   2   2  12 1902.68   52.90
   2  -2 -12 1956.47   54.23
  -2   2 -12 2218.20   98.50
  -2  -2  12 1988.82   88.60
  -2  -2  12 1970.76   87.90
  -2   2 -12 2062.88   90.89
  -2   2  12 1935.43   52.15
   2   2 -12 2094.44   92.24
   2  -2  12 1889.90   52.36
  -2  -2 -12 1980.85   88.36
  -2   2  12 1944.68   54.02
   2   2  13  484.91   14.51
  -2  -2  13  519.50   16.49
  -2   2 -13  520.90   15.52
   2   2  13  495.64   15.60
  -2  -2 -13  502.59   15.47
   2   2 -13  580.66   16.96
  -2   2  13  488.24   19.46
   2   2  14  271.71    8.81
   2  -2 -14  302.32   10.26
  -2   2 -14  276.11    8.60
  -2  -2  14  273.56    8.88
  -2  -2 -14  300.80   13.02
   2  -2  14  291.81    9.62
  -2   2  14  297.18   10.03
   2   2  15  100.66    6.94
  -2  -2  15  103.09    7.54
   2  -2 -15  107.36    7.76
  -2   2 -15  105.36    7.20
   2   2  15  107.27    7.47
   2   2 -15  119.85    8.52
   2  -2  15   96.59    7.03
  -2  -2 -15  109.31    9.55
  -2   2  15  115.22   15.21
   2   2  16   84.45    4.97
  -2  -2  16   95.43    7.10
  -2   2 -16   99.95    9.37
   2  -2 -16   90.67   18.32
  -2   2 -16   93.91    5.17
   2   2  16   89.88    5.49
  -2  -2 -16   92.91    5.66
   2  -2  16   91.54    5.72
   2   2 -16   96.48    4.79
  -2   2  16   90.01   13.26
   2   2  17  200.59   14.46
  -2  -2  17  213.70   12.21
  -2   2 -17  212.29   12.15
   2  -2 -17  200.61   11.69
  -2   2 -17  212.02   11.80
   2   2  17  221.57   12.39
  -2  -2 -17  213.28   15.88
   2  -2  17  206.09   12.02
   2   2 -17  196.02   10.58
  -2   2  17  200.00   11.66
   2   2  18    8.64    2.19
   2   2  18   11.99    2.70
  -2   2 -18   13.06    2.11
  -2  -2  18   13.62    3.45
   2  -2 -18   16.20    3.79
  -2   2 -18   13.21    2.12
   2   2 -18   11.51    2.26
   2  -2  18   11.92    2.78
   2   2 -18    8.17    1.78
  -2  -2 -18   13.62    2.50
  -2   2  18   13.45    2.59
   2   2  19    7.97    1.80
  -2   2 -19    8.09    1.70
  -2  -2  19   11.15    2.29
   2  -2 -19    7.04    1.58
  -2   2 -19    8.35    2.39
   2   2  19    8.76    2.11
   2   2 -19    7.78    2.06
   2  -2  19    8.53    2.77
  -2  -2 -19    8.46    2.87
  -2   2  19   14.42    2.74
   2   2  20  193.80   13.81
  -2   2 -20  202.02   10.86
  -2  -2  20  228.95   12.49
   2  -2 -20  214.81   11.85
  -2   2 -20  215.21   11.41
   2   2  20  223.94   11.91
   2   2 -20  208.71   11.65
   2  -2  20  200.63   11.22
  -2  -2 -20  242.67   20.72
  -2   2  20  220.86   12.63
   2   2  21    5.05    1.58
  -2   2 -21    7.72    1.68
  -2  -2  21    7.14    2.41
   2  -2 -21    8.26    2.28
  -2   2 -21    4.85    1.77
   2   2  21    6.98    1.56
   2   2 -21    6.53    1.91
   2  -2  21    9.80    3.50
  -2  -2 -21    5.89    2.10
  -2   2  21    3.20    3.30
   2   2  22   68.10   13.98
  -2  -2  22   96.70    9.41
   2  -2 -22   90.47   13.99
  -2   2 -22   79.28    9.18
   2   2  22   98.54    6.90
   2   2 -22   93.01   14.71
   2  -2  22   87.06   16.73
  -2  -2 -22   84.54    5.25
  -2   2  22   99.28   10.49
   2   2  23  253.32   20.20
  -2   2 -23  264.43   22.19
  -2   2 -23  285.93   22.90
  -2  -2  23  305.21   24.23
   2   2  23  316.43   25.71
   2   2 -23  333.07   26.15
   2  -2  23  309.38   24.43
  -2  -2 -23  309.44   24.36
  -2   2  23  322.79   25.50
   2   2  24   57.37   11.09
  -2   2 -24   58.78   10.25
  -2  -2  24   80.67   10.61
   2  -2 -24   83.53   15.76
  -2   2 -24   73.35   11.91
   2   2  24   82.66    9.83
   2   2 -24   78.73   11.58
   2  -2  24   75.84   12.05
  -2  -2 -24   90.40   14.29
  -2   2  24   87.75   13.04
   2   2  25   33.23    7.85
  -2   2 -25   38.13    9.62
   2  -2 -25   56.77   11.01
  -2   2 -25   50.33    6.53
   2   2  25   61.52    9.23
  -2  -2  25   57.75    9.73
   2   2 -25   61.95    9.45
   2  -2  25   61.45    6.01
  -2   2  25   59.78   12.87
  -2   2 -26  382.61   48.63
   2  -2 -26  361.01   36.73
  -2   2 -26  333.78   33.94
   2   2  26  385.07   49.09
  -2  -2  26  352.39   36.28
   2   2 -26  413.56   52.81
  -2  -2 -26  382.81   48.85
  -2   2  26  376.36   48.14
  -2   2 -27  571.81    9.15
  -2   2 -27  580.31   10.13
  -2  -2  27  613.57  108.94
   2   2  27  627.64  111.63
   2   2 -27  579.62   23.78
   2  -2  27  595.74   19.71
  -2  -2 -27  630.84  111.97
  -2   2  27  613.01  108.93
   2  -2 -28   14.49    4.18
  -2   2 -28   16.27    4.12
   2   2  28   15.26    4.23
  -2  -2  28   14.69    4.85
  -2  -2 -28   21.14    6.55
  -2   2  28   25.10    7.23
  -2  -2  29   25.97    5.11
   2  -2 -29   22.81    4.77
  -2   2 -29   21.02    5.88
   2   2  29   21.79    4.41
   2   2 -29   30.54    6.67
   2  -2  29   29.84    5.89
  -2  -2 -29   28.80    5.46
  -2   2  29   31.11    7.09
   2  -2 -30    9.85    2.89
  -2   2 -30    5.19    1.44
  -2  -2  30    7.12    3.16
   2   2 -30   14.08    3.71
  -2  -2 -30    7.32    2.76
   2  -2  30    7.81    3.15
  -2   2  30    6.42    2.91
   2  -2 -31   31.97    5.79
  -2  -2  31   25.01    5.12
   2   2 -31   24.28    5.58
  -2  -2 -31   19.01    4.67
   2  -2  31   22.54    4.40
  -2   2  31   23.98    5.27
   2  -2 -32   40.10    7.24
  -2  -2  32   32.79   15.27
   2   2 -32   49.98    7.55
  -2  -2 -32   36.42    7.83
   2  -2  32   38.12    7.42
  -2   2  32   39.15    7.80
  -2  -2  33   25.07    7.23
   2  -2 -33   25.35    5.48
  -2  -2 -33   17.14    4.86
   2   2 -33   32.65    5.85
  -2   2  33   21.86    5.64
   2   2  34   69.71   13.00
   2  -2 -34   64.03   13.19
  -2  -2  34   63.43   17.90
  -2  -2 -34   51.34   16.06
   2   2 -34   67.27   14.05
  -2   2  34   48.00   13.53
  -2  -2  35   61.38   17.09
   2  -2 -35   71.83   14.34
  -2  -2 -35   53.86   14.91
   2   2 -35   71.76   13.95
  -2   2  35   60.49   19.46
  -2  -2  36   -0.34    2.69
   2  -2 -36    4.92    2.58
  -2  -2 -36    0.93    1.24
   2   2 -36    2.58    1.80
  -2   2  36    3.03    2.12
   2  -2 -37   11.36    2.81
  -2  -2  37    6.83    3.23
  -2   2  37    6.77    3.21
   2  -2 -38   23.58    5.39
  -2  -2  38   14.28    4.68
  -2   2  38   15.66    5.88
   2  -3   0   93.94    4.33
  -2  -3   0  112.09    5.87
   2   3   1  936.71   21.22
   2  -3  -1  898.66   19.11
  -2  -3   1  884.47   18.41
  -2   3  -1  903.53   21.93
  -2  -3   1  905.20   20.39
   2  -3   1  873.55   18.26
  -2  -3  -1  921.77   20.78
   2   3  -1  869.37   19.52
   2  -3   1  891.04   20.02
  -2   3   1  879.00   23.92
  -2   3   1  928.20   21.20
   2   3   2  487.83   12.27
  -2  -3   2  507.24   10.91
  -2   3  -2  516.16   14.23
   2  -3  -2  480.44   10.76
  -2  -3   2  543.29   13.26
  -2   3   2  523.27   12.38
   2  -3   2  493.75   12.00
  -2  -3  -2  550.46   13.36
  -2   3   2  532.63   12.79
   2   3   3  768.55   24.66
  -2  -3   3  775.87   24.19
  -2   3  -3  845.24   27.07
   2  -3  -3  787.12   24.67
  -2  -3   3  765.36   24.56
  -2   3   3  773.28   25.56
  -2  -3  -3  786.31   25.23
   2  -3   3  781.81   25.02
   2   3  -3  703.52   23.12
  -2   3   3  823.39   26.52
   2   3   4   63.04   10.71
  -2  -3   4   59.20    4.15
  -2   3  -4   65.87   10.66
   2  -3  -4   51.10   10.10
  -2  -3   4   69.58    7.00
  -2   3   4   51.81    4.34
  -2  -3  -4   71.93   10.25
   2  -3   4   58.87    5.19
   2   3  -4   65.89    4.83
  -2   3   4   63.62    9.86
   2   3   5  491.31   15.16
  -2  -3   5  477.53   16.09
  -2   3  -5  525.88   17.39
  -2  -3   5  472.50   15.57
  -2   3   5  450.78   15.07
   2  -3   5  469.69   15.74
  -2  -3  -5  473.17   16.19
   2   3  -5  486.71   17.08
  -2   3   5  471.91   17.08
   2   3   6 1783.49   55.82
  -2  -3   6 1726.01   54.27
  -2   3  -6 1748.99   54.79
  -2  -3   6 1723.33   53.21
   2   3   6 1809.85   55.46
   2  -3   6 1678.84   53.19
  -2  -3  -6 1647.22   52.01
  -2   3   6 1734.76   53.87
  -2   3   6 1635.71   51.55
   2   3   7  153.45   12.86
  -2  -3   7  161.78   10.89
  -2   3  -7  156.49   13.83
  -2  -3   7  145.11    9.95
   2   3   7  163.57   10.40
   2  -3   7  154.25   10.51
  -2  -3  -7  149.32   10.15
  -2   3   7  167.92   20.67
   2   3   8  259.35   12.21
   2   3   8  299.67    9.66
  -2   3  -8  291.50   11.37
   2  -3  -8  264.45    9.70
  -2  -3   8  264.53   10.23
  -2  -3   8  277.10   10.25
   2  -3   8  285.17   10.13
  -2  -3  -8  269.14    9.77
  -2   3   8  267.74    9.12
  -2   3   8  276.57    9.93
   2   3   9  435.23   14.51
   2   3   9  510.99   16.21
  -2   3  -9  488.24   16.47
  -2   3  -9  480.01   14.92
  -2  -3   9  462.35   15.16
  -2  -3   9  469.28   15.74
   2  -3   9  520.97   17.44
  -2  -3  -9  480.88   16.28
  -2   3   9  475.35   15.30
  -2   3   9  469.56   15.83
   2   3  10  118.77    8.47
  -2  -3  10  121.35    8.10
   2   3  10  140.46    9.05
  -2   3 -10  133.10    9.02
  -2   3 -10  134.38    8.46
  -2  -3  10  133.78    9.25
  -2  -3 -10  130.19    8.95
   2  -3  10  128.16    8.71
   2   3 -10  140.51    9.19
  -2   3  10  124.57    8.11
  -2   3  10  132.24    9.06
   2   3  11   51.90    6.56
   2  -3 -11   49.94    8.69
  -2  -3  11   37.09    3.25
  -2   3 -11   54.64    9.65
  -2  -3  11   53.03    6.90
  -2   3 -11   49.19    3.31
   2   3  11   48.39    4.53
  -2  -3 -11   53.14    9.30
   2  -3  11   45.43    9.59
  -2   3  11   46.62    4.45
   2   3 -11   43.35    4.39
  -2   3  11   51.87    7.19
   2   3  12  132.88    9.01
   2  -3 -12  120.70    8.18
  -2  -3  12  135.24    8.95
  -2   3 -12  136.50    9.49
  -2  -3  12  132.67    9.02
  -2   3 -12  133.24    8.53
   2   3  12  142.21    9.21
  -2  -3 -12  129.47   11.99
   2  -3  12  139.60    9.57
  -2   3  12  131.14    8.43
   2   3 -12  138.85    9.54
  -2   3  12  118.76    8.57
   2   3  13   35.48    8.15
  -2  -3  13   27.51    7.93
   2   3  13   29.78    5.67
  -2   3 -13   27.22    4.23
   2  -3 -13   26.48    8.89
  -2   3 -13   30.02    2.41
  -2  -3  13   32.39    4.96
   2  -3  13   26.38    7.23
   2   3 -13   35.69    6.63
  -2   3  13   30.71    3.12
  -2   3  13   34.23    5.51
   2   3  14  448.31   24.14
   2   3  14  474.84   25.22
   2  -3 -14  441.48   23.99
  -2   3 -14  480.43   25.35
  -2  -3  14  454.19   24.45
  -2  -3  14  459.95   24.90
   2  -3  14  466.25   25.37
  -2  -3 -14  478.03   26.02
  -2   3  14  433.61   22.73
  -2   3  14  439.93   23.88
   2   3  15  245.95   13.72
   2  -3 -15  269.47   15.38
  -2   3 -15  261.17   14.09
   2   3  15  285.05   15.62
  -2  -3  15  273.59   15.15
   2  -3  15  285.54   16.57
  -2  -3 -15  287.22   16.30
  -2   3  15  293.51   16.61
   2   3  16   83.19    7.94
   2   3  16  100.72    6.10
   2  -3 -16  102.61   18.79
  -2   3 -16   94.95    4.37
  -2  -3  16   98.43    5.97
   2   3 -16  107.81    5.25
   2  -3  16  109.06   12.29
  -2  -3 -16  124.86   20.47
  -2   3  16  110.94   16.04
   2   3  17  210.79   11.60
  -2  -3  17  212.01    9.39
  -2   3 -17  230.92   10.43
   2   3  17  215.64    9.74
   2  -3 -17  207.88    9.61
  -2   3 -17  210.82    9.07
   2   3 -17  237.90   11.04
   2  -3  17  225.73   10.50
   2   3 -17  255.27   10.36
  -2  -3 -17  223.39   10.43
  -2   3  17  213.93    9.90
   2   3  18  161.93    7.87
  -2  -3  18  166.25    9.58
  -2   3 -18  202.99    9.36
   2   3  18  179.88    7.99
   2  -3 -18  159.59    7.86
  -2   3 -18  165.19    7.11
   2   3 -18  172.89    8.26
   2  -3  18  179.88    9.60
   2   3 -18  179.37    9.35
  -2  -3 -18  173.31    9.86
  -2   3  18  167.96    8.30
   2   3  19   49.13    9.47
   2   3  19   56.81   10.48
  -2   3 -19   68.12   12.15
   2  -3 -19   48.67    7.60
  -2   3 -19   53.27    5.62
  -2  -3  19   59.07   10.95
   2   3 -19   54.25    7.24
   2  -3  19   53.54   13.68
   2   3 -19   59.84    3.22
   2   3  20  218.72   11.41
  -2   3 -20  289.67   15.38
   2  -3 -20  233.22   12.64
  -2   3 -20  237.62   12.47
  -2  -3  20  249.78   21.18
   2   3 -20  219.11   11.98
  -2  -3 -20  231.12   12.61
   2  -3  20  269.72   14.51
  -2   3  20  247.10   13.65
   2   3  21   19.91    5.13
  -2   3 -21   27.24    4.82
   2  -3 -21   31.43    7.43
  -2   3 -21   26.53    4.92
  -2  -3  21   28.41    5.98
   2   3 -21   32.37    5.20
  -2  -3 -21   33.83    6.13
   2  -3  21   28.53    6.23
  -2   3  21   31.81    7.37
   2   3  22   13.81    3.28
   2  -3 -22   20.30    4.34
  -2   3 -22   20.03    4.10
  -2  -3  22   24.35    4.08
   2   3 -22   17.55    3.61
  -2  -3 -22   23.56    3.64
   2  -3  22   20.11    5.02
  -2   3  22   22.31    3.75
   2   3  23    5.55    1.07
  -2   3 -23    7.44    1.90
   2  -3 -23    7.65    1.64
  -2   3 -23    7.26    1.47
  -2  -3  23   10.57    2.37
   2   3 -23    8.49    1.82
  -2  -3 -23    9.20    2.34
   2  -3  23   12.00    2.33
  -2   3  23    7.90    1.95
   2   3  24   10.36    2.41
  -2   3 -24   11.93    2.84
   2  -3 -24    9.40    2.40
  -2   3 -24   12.28    2.37
  -2  -3  24   17.29    3.87
   2   3 -24    8.76    1.86
   2  -3  24   11.90    2.77
  -2   3  24   18.29    4.06
   2   3  25   47.01   10.98
  -2   3 -25   61.19   11.07
   2  -3 -25   74.78   15.60
  -2   3 -25   73.13    9.33
  -2  -3  25   76.65   14.11
   2   3 -25   69.16   10.35
   2  -3  25   77.56   16.20
  -2   3  25   82.10   14.60
  -2   3 -26   41.13    5.81
   2   3  26   52.84    7.88
   2  -3 -26   49.62    7.48
  -2   3 -26   41.98    7.20
  -2  -3  26   57.03   10.66
   2   3 -26   55.40   10.67
   2  -3  26   50.63    6.54
  -2  -3 -26   56.40   12.22
  -2   3  26   54.48    6.38
  -2   3 -27   11.34    3.07
   2   3  27   13.69    3.65
   2  -3 -27   14.13    4.01
  -2   3 -27   11.22    3.07
  -2  -3  27   15.96    4.01
   2   3 -27   22.63    5.89
   2  -3  27   20.06    4.65
  -2  -3 -27   16.44    4.38
  -2   3  27   17.29    4.24
  -2   3 -28    2.76    1.09
   2  -3 -28    4.19    2.42
   2   3  28    6.33    2.03
  -2  -3  28    5.21    1.91
   2   3 -28    7.22    1.97
   2  -3  28    7.50    2.98
  -2  -3 -28    8.54    2.79
  -2   3  28    5.69    2.86
   2  -3 -29   44.09   10.48
   2   3  29   34.29    6.44
  -2  -3  29   42.14    6.97
   2   3 -29   46.61    9.14
   2  -3  29   48.62    7.94
  -2  -3 -29   42.35    7.02
  -2   3  29   47.78    8.15
   2  -3 -30   30.88    6.65
   2   3  30   29.65    8.24
  -2  -3  30   33.40    8.93
   2   3 -30   38.85   14.42
   2  -3  30   34.81    6.26
  -2  -3 -30   39.02   15.36
  -2   3  30   28.09    7.60
   2  -3 -31    2.86    1.38
   2   3  31    3.45    1.78
  -2  -3  31    1.92    1.56
   2   3 -31    3.65    1.62
   2  -3  31    6.53    2.58
  -2  -3 -31    4.33    2.68
  -2   3  31    3.29    2.10
   2  -3 -32   11.29    3.31
   2   3  32    8.64    3.84
  -2  -3  32    9.53    4.21
   2   3 -32   19.59    3.99
   2  -3  32   13.06    3.07
  -2  -3 -32    9.59    3.38
  -2   3  32   11.26    3.04
   2  -3 -33   28.22    6.14
  -2  -3  33   22.52    5.91
   2   3 -33   31.85   14.25
  -2  -3 -33   22.50    7.04
   2  -3  33   29.54    6.44
  -2   3  33   24.16    7.02
   2  -3 -34    1.16    1.39
  -2  -3  34    2.35    1.65
   2   3 -34    8.34    4.06
  -2  -3 -34    6.29    3.84
   2  -3  34    5.18    2.87
  -2   3  34    6.44    3.68
   2  -3 -35   10.47    4.33
  -2  -3  35   12.15    6.04
   2   3 -35   18.78    6.85
  -2  -3 -35   11.31    4.43
   2  -3  35   17.08    7.89
  -2   3  35   16.46    6.93
   2  -3 -36    3.53    5.20
  -2  -3  36    2.88    4.66
  -2  -3 -36    2.71    4.09
   2  -3  36    3.65    5.58
  -2   3  36    3.89    2.14
   2  -3 -37    4.25    1.80
  -2  -3  37    3.09    4.58
   2  -3  37    8.92    3.34
  -2   3  37   -0.01    2.62
   2  -3 -38    5.83    2.25
   2   4   0  613.28   19.99
  -2   4   0  637.06   20.65
   2  -4   0  597.67   18.66
  -2  -4   0  606.84   20.14
   2  -4   0  616.72   20.16
  -2  -4   0  551.51   16.99
   2   4   1   30.38    6.93
   2  -4  -1   25.10    2.44
  -2  -4   1   22.15    1.72
  -2   4  -1   27.20    5.67
  -2  -4   1   29.67    4.98
   2  -4   1   22.98    1.62
  -2  -4  -1   26.97    4.42
   2   4  -1   24.04    7.38
   2  -4   1   28.65    6.28
  -2   4   1   31.46    7.05
   2   4   2  248.43    8.96
  -2  -4   2  210.90   13.12
  -2   4  -2  218.62   14.09
   2  -4  -2  235.94    7.84
  -2  -4   2  224.47   14.57
  -2   4   2  226.53   14.51
  -2  -4  -2  224.09   14.60
   2  -4   2  237.81    8.73
   2   4  -2  227.24    8.78
  -2   4   2  231.84    8.53
  -2  -4   3   73.46    4.84
  -2   4  -3   78.05    5.93
   2  -4  -3   81.68    5.54
  -2  -4   3   86.56    8.12
  -2   4   3   78.42    5.78
  -2  -4  -3   85.46    6.66
   2  -4   3   82.21    6.03
   2   4  -3   97.44    6.97
  -2   4   3   87.73    7.27
  -2  -4   4  817.96   25.50
  -2   4  -4  882.41   28.52
   2  -4  -4  828.43   26.26
  -2  -4   4  825.44   26.66
  -2   4   4  804.49   25.69
  -2  -4  -4  818.01   26.62
   2  -4   4  843.97   27.65
   2   4  -4  778.56   25.05
  -2   4   4  833.62   27.05
  -2  -4   5  499.64   16.98
  -2  -4   5  547.18   18.25
   2  -4  -5  561.01   18.00
   2   4  -5  503.32   16.62
  -2   4   5  507.97   16.75
   2  -4   5  541.13   18.10
  -2  -4  -5  525.79   17.89
  -2   4   5  527.09   18.37
   2   4   6   25.61    3.74
  -2  -4   6   12.78    3.22
  -2   4  -6   30.48    5.59
   2  -4  -6   24.57    4.08
  -2  -4   6   28.30    3.62
  -2   4   6   18.31    4.66
  -2  -4  -6   30.69    5.31
   2  -4   6   18.99    7.52
   2   4  -6   22.98    4.86
  -2   4   6   27.60    4.09
   2   4   7  191.38    7.20
  -2  -4   7  187.54    6.01
  -2   4  -7  193.90    9.27
   2  -4  -7  169.08   10.95
  -2  -4   7  191.18    6.98
  -2   4   7  183.08    8.75
   2  -4   7  171.78   11.45
  -2  -4  -7  183.91    6.80
  -2   4   7  178.75   13.24
   2   4   8    6.73    3.58
  -2  -4   8    8.57    5.45
  -2   4  -8   18.81    4.18
   2  -4  -8   21.90    5.72
  -2  -4   8   22.29    4.08
  -2   4   8   14.45    3.88
  -2  -4  -8   25.36    4.72
   2  -4   8   23.77    5.45
   2   4  -8   26.93    4.15
  -2   4   8   25.82    3.43
   2   4   9  926.95   26.72
  -2  -4   9  902.19   25.97
  -2   4  -9  918.81   26.40
  -2  -4   9  923.90   26.24
  -2   4   9  878.01   24.77
   2  -4   9  915.21   26.42
  -2  -4  -9  900.99   26.11
  -2   4   9  908.79   26.24
   2   4  10   61.01   10.84
  -2  -4  10   56.09    8.89
  -2   4 -10   65.38   14.37
  -2  -4 -10   75.46   10.34
  -2   4  10   51.97    6.73
   2   4  11  256.26   14.45
   2   4  11  293.80   15.68
  -2  -4  11  267.53   14.92
  -2   4 -11  298.81   17.40
  -2  -4  11  254.76   13.92
  -2   4  11  248.85   13.47
   2  -4  11  282.95   15.81
  -2  -4 -11  287.05   16.17
   2   4 -11  284.39   15.56
   2   4  12  340.72   18.53
   2   4  12  390.03   20.79
  -2  -4  12  382.20   20.91
   2  -4 -12  355.14   19.30
  -2  -4  12  366.47   20.15
  -2   4  12  342.43   18.64
   2  -4  12  377.22   21.43
  -2  -4 -12  366.92   20.25
   2   4 -12  381.64   20.87
  -2   4  12  367.03   20.17
   2   4  13  545.81   29.23
   2   4  13  563.07   29.80
  -2   4 -13  575.71   32.30
   2  -4 -13  532.66   28.52
  -2  -4  13  520.53   27.75
  -2   4  13  525.25   27.67
  -2  -4 -13  583.06   31.66
   2  -4  13  543.71   29.53
   2   4 -13  558.87   29.76
  -2   4  13  542.89   29.39
   2   4  14  200.97    9.24
  -2   4 -14  218.78    9.08
   2   4  14  239.66   10.08
  -2   4  14  215.70    9.84
  -2  -4 -14  243.32   14.09
   2  -4  14  254.36   11.78
  -2   4  14  243.26   11.24
   2   4  15  434.25   18.66
   2   4  15  458.81   18.05
  -2   4 -15  419.48   16.27
   2  -4  15  414.03   17.31
  -2   4  15  417.32   16.36
  -2   4  15  427.10   17.85
   2   4  16   74.72    7.41
  -2   4 -16   69.06    8.98
   2   4  16   91.44    4.97
  -2  -4  16   91.00    8.84
   2  -4  16   95.05    5.83
  -2  -4 -16  104.29   15.60
  -2   4  16  111.64   11.96
   2   4  17   78.99    5.41
   2  -4 -17   81.10   14.03
  -2   4 -17   82.80    4.14
  -2  -4  17   97.05    8.86
   2   4  17   92.40   10.13
   2   4 -17   98.47    4.51
   2  -4  17   92.86    5.56
  -2   4  17   94.48   11.33
   2   4  18   70.89    4.37
  -2  -4  18   77.73    5.74
  -2   4 -18   81.33   11.41
   2   4  18   80.07    3.91
   2  -4 -18   79.90   10.50
  -2   4 -18   74.18    3.50
   2   4 -18   99.70   16.44
   2  -4  18   79.16    6.75
   2   4 -18   80.71    3.93
  -2  -4 -18   82.39   14.25
  -2   4  18   82.33   11.22
   2   4  19  222.95   12.57
   2   4  19  260.43   13.38
  -2   4 -19  232.76   12.53
   2  -4 -19  244.13   13.11
  -2   4 -19  221.20   11.40
  -2  -4  19  238.78   13.09
   2   4 -19  235.58   13.18
   2  -4  19  231.98   12.77
   2   4 -19  237.48   12.11
  -2   4  19  250.64   28.59
   2   4  20   80.85    8.39
  -2  -4  20  100.91   14.91
  -2   4 -20   99.28   15.18
   2   4  20   99.94   14.03
   2  -4 -20   91.90   12.77
  -2   4 -20   91.05   11.89
   2   4 -20   89.47   10.28
   2  -4  20   87.16   11.43
   2   4 -20   83.59    8.26
  -2  -4 -20  102.03   15.89
  -2   4  20   99.12   12.76
   2   4  21   37.50    6.49
  -2  -4  21   43.81    5.86
  -2   4 -21   40.12    6.07
   2   4  21   41.79    6.75
   2  -4 -21   40.25    9.13
  -2   4 -21   35.28    7.00
   2   4 -21   43.29    6.90
   2  -4  21   50.20    9.25
   2   4 -21   41.69    5.61
  -2  -4 -21   50.58    7.93
  -2   4  21   45.98    9.13
   2   4  22   12.78    3.72
  -2   4 -22   23.58    7.02
   2  -4 -22   17.08    3.62
   2   4  22   18.42    3.36
  -2  -4  22   22.07    4.67
   2   4 -22   20.31    3.60
   2  -4  22   19.62    4.34
  -2  -4 -22   19.88    3.87
  -2   4  22   18.92    3.56
   2   4  23   24.12    5.07
   2  -4 -23   28.91    6.71
   2   4  23   31.71    5.26
  -2  -4  23   38.87    6.29
   2   4 -23   38.42    7.83
   2  -4  23   35.59    6.77
  -2  -4 -23   32.71    5.28
  -2   4  23   34.57    6.79
   2   4  24  167.14   17.55
  -2   4 -24  220.00   22.82
   2  -4 -24  200.50   21.03
   2   4  24  188.88   30.67
  -2  -4  24  210.52   21.81
   2   4 -24  170.18   25.93
   2  -4  24  204.99   21.67
  -2  -4 -24  184.17   19.25
  -2   4  24  186.43   30.20
   2   4  25    8.70    1.65
  -2   4 -25    9.93    2.86
  -2  -4  25   15.30    3.12
   2  -4 -25    8.18    2.61
   2   4  25    8.22    2.95
  -2  -4 -25   12.25    4.84
   2   4 -25   13.78    3.17
  -2   4  25    9.92    2.12
  -2   4 -26   40.15    9.59
   2  -4 -26   53.92   10.34
   2   4  26   48.99   11.28
  -2  -4  26   62.64    8.47
   2   4 -26   65.96   10.10
   2  -4  26   68.80   13.76
  -2  -4 -26   61.57    9.45
  -2   4  26   57.25   15.72
  -2   4 -27  119.24   24.39
   2  -4 -27  167.69   27.13
   2   4  27  158.28   26.34
  -2  -4  27  196.49   42.61
   2   4 -27  187.47   41.09
   2  -4  27  184.36   44.18
  -2  -4 -27  178.93   38.85
  -2   4  27  165.17   30.43
  -2   4 -28    6.48    1.83
   2  -4 -28    4.92    1.80
   2   4  28    9.12    2.89
  -2  -4  28   14.23    5.05
   2   4 -28   14.96    3.98
   2  -4  28   14.62    4.58
  -2  -4 -28   10.15    3.51
  -2   4  28   12.43    4.00
   2  -4 -29   40.36    6.58
   2   4  29   27.89    5.99
  -2  -4  29   39.60   15.02
   2   4 -29   45.44    6.14
   2  -4  29   39.25   15.66
  -2  -4 -29   39.75   15.57
  -2   4  29   33.25    7.56
   2  -4 -30   79.61   12.28
   2   4  30   63.62   12.22
  -2  -4  30   65.13   15.05
   2   4 -30   93.84    9.03
   2  -4  30   75.64   11.29
  -2  -4 -30   80.11   12.65
  -2   4  30   77.43   12.36
   2  -4 -31   20.40    5.74
  -2  -4  31   24.06    6.65
   2   4 -31   24.17    6.16
  -2  -4 -31   21.96    5.03
   2  -4  31   24.50    7.94
  -2   4  31   17.79    5.60
   2  -4 -32   60.69   11.51
  -2  -4  32   42.33    9.71
   2   4 -32   43.30    8.30
  -2  -4 -32   37.80   10.49
   2  -4  32   52.77   10.93
   2  -4 -33   19.40    5.47
  -2  -4  33   15.98    5.79
   2   4 -33   16.81    4.42
  -2  -4 -33   14.51    4.82
   2  -4  33   13.77    4.10
   2  -4 -34   21.86    8.71
  -2  -4  34   21.25    9.04
  -2  -4 -34   20.29    8.77
   2  -4  34   25.55    7.57
   2  -4 -35    5.10    2.72
  -2  -4  35    1.70    2.12
  -2  -4 -35    5.65    3.12
   2  -4  35    6.05    2.98
   2  -4 -36    5.56    2.49
  -2  -4  36    8.18    3.47
  -2  -4 -36    7.63    2.92
   2  -4  36    9.24    3.88
  -2   4  36    4.93    2.13
   2  -4 -37    3.31    5.04
   2  -4  37    6.54    2.53
   2   5   0   89.01   13.32
  -2   5   0   58.37    4.56
  -2  -5   0   73.80   11.36
   2  -5   0   68.87    7.40
  -2  -5   0   77.95    5.50
   2   5   1  257.25    8.71
   2  -5  -1  267.30    8.99
  -2   5  -1  260.00    8.67
  -2  -5   1  248.35    8.62
  -2   5   1  249.09    8.31
   2   5  -1  232.38    7.92
  -2  -5  -1  243.04    8.36
   2  -5   1  238.80    6.95
   2  -5   1  270.33    9.33
  -2  -5   2   24.24    2.09
  -2  -5   2   26.92    4.65
  -2   5  -2   30.01    8.08
   2  -5  -2   65.04   12.79
   2  -5   2   22.11    2.32
  -2   5   2   28.92    5.22
   2  -5   2   32.67    6.74
   2   5  -2   26.82    5.43
  -2  -5   3  389.85   12.08
  -2   5  -3  389.17   13.28
   2  -5  -3  402.74   11.76
  -2  -5   3  387.49   12.33
  -2   5   3  386.66   14.04
  -2  -5  -3  398.53   12.69
   2  -5   3  376.98   12.03
   2   5  -3  392.01   12.24
   2   5   4  148.18   10.74
  -2  -5   4  157.91   10.76
   2  -5  -4  156.69   10.17
  -2  -5   4  158.80   10.28
  -2   5   4  127.74    8.55
   2   5  -4  149.97   11.05
   2  -5   4  155.98   10.71
  -2   5   4  164.66   18.85
   2   5   5  394.42   13.26
  -2  -5   5  388.11   11.80
  -2   5  -5  371.51   12.10
   2  -5  -5  377.71   11.31
  -2  -5   5  389.72   12.44
  -2   5   5  376.92   11.68
  -2  -5  -5  383.43   12.51
   2  -5   5  402.36   12.89
   2   5  -5  374.95   12.03
  -2   5   5  382.01   12.25
   2   5   6  102.44    7.72
  -2  -5   6   94.95    6.69
  -2  -5   6  103.83   13.28
   2  -5  -6  100.75    6.84
   2   5  -6  100.17    7.03
  -2   5   6  102.00    9.44
   2  -5   6  104.39    7.48
  -2  -5  -6   97.68    7.13
  -2   5   6  113.40   15.80
   2   5   7    3.58    1.41
  -2  -5   7    8.06    1.54
  -2   5  -7    9.32    1.56
   2  -5  -7    9.07    1.49
  -2  -5   7    9.85    2.24
  -2   5   7    9.71    2.27
  -2  -5  -7    7.88    1.20
   2  -5   7    8.75    1.78
   2   5  -7   10.52    2.26
  -2   5   7    6.39    1.26
   2   5   8   76.38    5.05
   2   5   8   72.42    3.70
  -2   5  -8   81.57    5.37
   2  -5  -8   77.84    8.46
  -2  -5   8   72.50    6.15
  -2  -5  -8   82.94   13.03
   2  -5   8   78.83    5.11
  -2   5   8   91.71    9.78
  -2   5   8   67.05    4.36
   2   5   9  246.24   14.26
   2   5   9  226.96   12.12
  -2   5  -9  233.45   13.37
   2  -5  -9  228.94   12.76
  -2  -5   9  228.77   14.99
  -2   5   9  229.49   12.77
   2  -5   9  226.73   13.18
  -2  -5  -9  239.18   13.99
  -2   5   9  237.51   14.30
   2   5  10   11.44    3.49
   2   5  10   12.44    2.15
  -2   5 -10   12.35    2.00
   2  -5 -10   12.48    2.37
  -2  -5  10   13.42    2.38
  -2   5  10    5.63    1.31
   2  -5  10   11.14    2.10
  -2  -5 -10   14.74    3.45
  -2   5  10   14.27    2.66
   2   5  11  191.29   10.13
  -2  -5  11  190.90   12.02
   2   5  11  195.39    7.91
  -2   5 -11  216.55   10.14
   2  -5 -11  185.99    8.41
  -2  -5  11  189.35    8.56
  -2  -5 -11  194.82    8.98
   2  -5  11  188.19    8.78
   2   5 -11  182.96    8.80
  -2   5  11  180.59    7.70
  -2   5  11  179.62    8.53
   2   5  12  100.75    5.10
   2   5  12  122.23    5.32
  -2   5 -12  120.21    6.19
   2  -5 -12  120.65    6.02
  -2  -5  12  108.40    7.08
  -2   5  12  110.78    8.83
  -2  -5 -12  119.04   12.20
   2  -5  12  108.88    6.17
   2   5 -12  107.01    6.38
  -2   5  12  113.53   12.71
   2   5  13   10.69    2.96
   2   5  13   11.02    2.56
  -2   5 -13   19.71    4.01
   2  -5 -13   13.13    3.37
  -2  -5  13   14.68    3.15
  -2   5  13   14.16    3.42
  -2  -5 -13   14.90    3.42
   2  -5  13   17.77    3.55
   2   5 -13   13.75    3.89
  -2   5  13   12.00    2.05
   2   5  14   80.63   12.49
   2  -5 -14   71.70    4.15
  -2   5 -14   92.36   14.20
   2   5  14   80.09    3.93
  -2  -5  14   81.60    5.75
  -2   5  14   73.68    3.32
   2  -5  14   80.39    6.71
   2   5 -14   82.79    5.47
  -2   5  14   79.36    8.89
   2   5  15  462.66   29.39
   2   5  15  482.66   23.86
   2   5 -15  460.92   23.30
  -2  -5 -15  479.67   24.64
   2  -5  15  482.32   24.60
  -2   5  15  453.47   22.38
  -2   5  15  451.54   23.09
   2   5  16    5.34    1.67
  -2   5 -16    7.44    1.64
  -2  -5  16    5.97    3.14
  -2  -5  16   10.11    2.84
   2   5  16    6.75    1.82
  -2   5  16    5.28    1.07
   2  -5  16    7.47    2.02
  -2   5  16    7.96    2.91
   2   5  17   64.38   10.66
  -2  -5  17   68.59   13.54
  -2  -5  17   75.61   12.19
   2   5  17   58.88    9.63
   2   5 -17   64.71   12.25
   2  -5  17   65.14    8.19
  -2  -5 -17   76.93   13.66
  -2   5  17   69.29   11.29
   2   5  18  261.70   20.92
  -2   5 -18  298.94   23.50
   2   5  18  300.05   23.16
   2   5 -18  283.42   22.77
  -2  -5 -18  267.47   21.36
   2  -5  18  230.73   18.45
  -2   5  18  271.70   21.50
   2   5  19    8.63    1.91
   2   5  19    7.40    2.06
  -2   5 -19    9.37    2.14
   2  -5 -19   15.31    4.28
  -2  -5  19   12.20    1.82
   2   5 -19   19.17    4.42
  -2  -5 -19   11.30    2.69
   2  -5  19   12.75    2.40
   2   5 -19    8.76    2.45
  -2   5  19   11.04    1.74
   2   5  20   98.08    7.81
   2   5  20   80.19   13.30
  -2   5 -20   86.67   12.44
  -2  -5  20  102.39   14.49
   2   5 -20   88.67   13.86
   2  -5  20   89.81    9.30
   2   5 -20  109.04   11.19
  -2  -5 -20   94.45   14.65
  -2   5  20   96.12   12.85
   2   5  21   66.81   10.16
   2   5  21   60.82    8.75
  -2   5 -21   63.96   10.89
  -2  -5  21   78.85   10.75
   2   5 -21   52.50    9.92
   2  -5  21   73.35   11.74
   2   5 -21   74.37   10.40
  -2  -5 -21   75.66   11.63
  -2   5  21   77.16   12.56
   2   5  22  192.94   20.89
   2   5  22  231.22   23.53
  -2   5 -22  197.76   23.67
  -2  -5  22  205.68   30.06
   2   5 -22  192.19   20.89
   2  -5  22  212.20   23.80
   2   5 -22  213.86   22.48
  -2  -5 -22  204.67   21.30
   2   5  23  133.35    7.75
  -2  -5  23  161.63   10.59
   2  -5 -23  166.45    6.67
   2   5  23  154.38    4.77
  -2  -5 -23  157.42   23.57
   2   5 -23  149.97    7.85
   2   5  24   26.98    5.75
  -2   5 -24   33.06    6.83
   2  -5 -24   33.67    8.45
   2   5  24   26.88    6.26
  -2  -5  24   33.13    6.75
   2   5 -24   39.37    6.44
   2  -5  24   33.05    6.25
  -2  -5 -24   39.95    6.93
  -2   5 -25   11.73    3.69
   2  -5 -25    8.71    2.64
   2   5  25    8.32    2.23
  -2  -5  25   12.22    2.96
   2   5 -25   10.67    2.64
   2  -5  25    6.14    1.79
  -2  -5 -25   11.86    3.15
  -2   5 -26   36.94    5.57
   2  -5 -26   33.39    9.66
   2   5  26   22.62    5.12
  -2  -5  26   30.55    7.60
   2   5 -26   26.28    6.38
   2  -5  26   34.98    6.22
  -2  -5 -26   29.39    6.71
  -2   5 -27    0.93    1.28
   2  -5 -27    2.57    1.54
  -2  -5  27    0.50    1.37
   2   5 -27    3.69    1.38
  -2  -5 -27    1.34    1.81
   2  -5  27    3.00    2.27
  -2   5  27    3.70    1.99
  -2   5 -28    2.38    1.13
   2  -5 -28    5.96    2.26
  -2  -5  28    7.89    3.05
   2   5 -28   10.27    3.56
  -2  -5 -28    5.62    2.57
   2  -5  28    8.08    3.80
  -2   5  28    0.35    2.07
   2  -5 -29   71.67   14.91
  -2  -5  29   72.11   14.05
   2   5 -29   81.14   12.51
  -2  -5 -29   68.07   13.46
   2  -5  29   85.65   15.41
   2  -5 -30    2.10    1.36
  -2  -5  30    0.42    1.05
   2   5 -30    2.96    2.13
  -2  -5 -30    1.71    1.64
   2  -5  30    5.35    2.62
   2  -5 -31   20.34    6.48
  -2  -5  31   20.92    5.70
   2   5 -31   22.69    6.10
  -2  -5 -31   18.65    5.69
   2  -5  31   30.60    6.73
   2  -5 -32   -1.10    2.47
  -2  -5  32    1.37    2.35
  -2  -5 -32    4.10    2.23
   2  -5  32   -1.34    2.30
   2  -5 -33   23.22    9.47
  -2  -5  33   16.06    6.79
  -2  -5 -33   22.61    9.76
   2  -5  33   25.40    6.79
   2  -5 -34   37.59   14.19
  -2  -5  34   37.00   11.91
  -2  -5 -34   39.88   11.36
   2  -5  34   55.57   12.91
  -2   5  34   39.84   12.97
   2  -5 -35   22.23    7.82
  -2  -5 -35   18.45    6.68
   2  -5  35   28.10    6.48
   2  -5  36    6.44    2.50
   2   6   0   60.37    4.17
  -2   6   0   55.57    5.14
   2  -6   0   60.76    3.23
  -2  -6   0   65.20    8.82
   2  -6   0   69.73    4.92
   2   6   1   61.10   12.49
   2  -6  -1   57.31   10.68
  -2   6  -1   52.94    5.48
   2  -6  -1   51.27    5.93
  -2  -6   1   54.37    7.09
  -2  -6   1   50.95    3.91
  -2   6   1   55.76    3.85
   2  -6   1   50.86    4.60
  -2  -6  -1   59.05    8.96
   2   6  -1   50.51    3.68
   2  -6   1   52.36    4.12
  -2  -6   2   19.20    2.75
  -2   6  -2   21.47    4.12
   2  -6  -2   17.54    3.21
   2  -6  -2   26.29    5.71
  -2   6   2   26.24    4.56
  -2  -6  -2   22.78    3.36
   2  -6   2   26.69    4.51
   2   6  -2   20.18    4.63
  -2  -6   3   52.82    4.11
  -2   6  -3   57.33   10.21
   2  -6  -3   53.63    3.13
   2  -6  -3   55.46    3.91
  -2   6   3   52.48    3.59
  -2  -6  -3   61.02   10.65
   2  -6   3   55.89    4.26
   2   6  -3   51.68    3.66
   2   6   4   73.06    4.88
   2  -6  -4   69.24    3.98
  -2   6  -4   71.39    5.65
  -2  -6   4   68.50    4.19
  -2   6   4   68.00    7.20
  -2  -6  -4   83.63   12.65
   2  -6   4   78.27    6.19
   2   6  -4   81.75    6.99
   2   6   5  160.51    7.61
  -2   6  -5  167.72    7.89
  -2  -6   5  164.13   11.00
   2   6  -5  173.27    7.94
  -2   6   5  154.65    7.30
  -2  -6  -5  177.76   16.65
   2  -6   5  158.14    7.62
  -2   6   5  185.35   17.46
   2   6   6  108.93    5.94
  -2   6  -6  128.47   12.85
   2   6  -6  123.37   14.36
  -2   6   6  120.40    6.16
  -2  -6  -6  135.47    7.08
   2  -6   6  131.34    6.69
  -2   6   6  137.11    7.28
   2   6   7   96.79    5.49
  -2  -6   7  102.74    5.28
  -2   6  -7   88.88    8.74
   2   6  -7  108.09    6.17
  -2  -6  -7  105.11   14.23
  -2   6   7   89.63    8.80
  -2   6   7  108.33   13.65
   2   6   8  193.94    9.33
  -2   6  -8  202.94    9.39
   2  -6  -8  196.60    8.61
  -2   6   8  195.09    8.54
  -2  -6  -8  210.49    9.77
   2  -6   8  231.88   13.21
  -2   6   8  209.65    9.65
   2   6   9    9.56    3.60
  -2  -6   9    6.41    1.31
  -2  -6   9    5.99    1.87
   2  -6  -9    5.55    1.67
   2   6  -9    9.90    2.39
  -2   6   9    9.95    3.33
   2  -6   9    7.70    1.55
  -2  -6  -9    8.27    2.62
   2   6  10  138.99    8.23
  -2  -6  10  151.84    9.26
  -2   6 -10  150.17    8.98
   2  -6 -10  145.18    9.06
  -2  -6  10  140.54    8.71
  -2   6  10  134.92    9.18
   2  -6  10  132.21   14.58
  -2  -6 -10  147.97    8.77
   2   6  11  303.49   21.71
  -2  -6  11  321.77   17.12
  -2   6 -11  251.66   13.51
   2  -6 -11  274.50   14.97
  -2  -6  11  279.91   14.93
  -2   6  11  268.66   13.97
  -2  -6 -11  290.96   15.69
   2  -6  11  281.25   15.87
   2   6 -11  276.89   14.54
   2   6  12    6.74    1.70
  -2  -6  12    9.33    1.47
  -2   6 -12    6.18    1.28
   2  -6 -12    7.60    1.48
  -2  -6  12   10.91    2.22
  -2   6  12    8.50    1.46
  -2  -6 -12   11.89    3.14
   2  -6  12    8.44    2.44
   2   6 -12   11.12    2.08
   2   6  13   55.95   10.61
  -2  -6  13   48.39    6.44
  -2   6 -13   51.78   11.78
   2  -6 -13   48.45    8.59
  -2  -6  13   49.61    8.14
  -2   6  13   46.65    6.51
  -2  -6 -13   57.62   12.68
   2  -6  13   57.45   11.31
   2   6 -13   62.56   12.71
   2   6  14   35.74    6.64
  -2  -6  14   30.83    6.53
  -2   6 -14   35.26    6.65
   2  -6 -14   32.24    6.55
  -2  -6  14   33.58    8.01
  -2   6  14   27.77    5.91
  -2  -6 -14   35.46    6.64
   2  -6  14   31.71    8.27
   2   6 -14   30.80    6.58
   2   6  15   43.18    5.57
  -2  -6  15   39.29    5.30
  -2  -6  15   41.32    7.03
   2  -6 -15   34.98    5.78
   2   6 -15   34.86    6.53
  -2   6  15   33.39    4.08
   2  -6  15   36.95    6.46
  -2  -6 -15   35.36    3.55
   2   6  16   23.43    3.67
  -2  -6  16   22.34    3.81
   2   6  16   16.13    3.19
  -2   6 -16   19.40    3.23
   2  -6 -16   17.58    3.58
  -2  -6  16   20.79    2.96
  -2  -6 -16   26.15    4.15
   2  -6  16   28.97    4.83
   2   6 -16   23.33    4.28
  -2   6  16   15.46    2.65
   2   6  17   21.40    3.95
   2  -6 -17   20.53    3.83
  -2  -6  17   21.28    4.03
  -2  -6  17   24.85    4.45
   2  -6  17   22.74    4.77
  -2  -6 -17   24.79    5.63
  -2   6  17   20.88    3.51
   2   6  18   81.02   11.42
  -2  -6  18   80.51   13.10
  -2   6 -18   85.55   14.01
   2  -6 -18   88.06   13.89
  -2  -6  18   75.65   11.40
   2   6 -18   73.22   13.48
   2  -6  18   96.31   14.44
  -2   6  18   74.90    8.89
   2   6  19   52.41   11.16
   2  -6 -19   51.75   10.00
  -2   6 -19   54.90   12.45
  -2  -6  19   49.18    7.50
   2   6 -19  117.13   25.77
  -2  -6 -19   58.08    9.75
   2  -6  19   53.28    9.92
   2   6 -19   41.64    9.04
   2   6  20    8.36    1.83
   2  -6 -20    7.82    3.05
  -2   6 -20    8.03    1.78
  -2  -6  20    6.99    1.56
   2   6 -20    7.34    1.81
  -2  -6 -20    7.84    2.34
   2  -6  20    8.06    1.52
   2   6 -20    7.15    1.38
   2   6  21   -0.38    1.25
  -2   6 -21    1.14    1.17
  -2  -6  21    1.34    0.71
   2   6 -21    2.71    1.05
  -2  -6 -21    3.21    1.86
   2  -6  21    0.75    0.98
   2   6 -21    3.06    1.24
   2   6  22   35.00    5.88
  -2   6 -22   46.04    9.11
  -2  -6  22   50.17    6.72
   2   6 -22   31.14    9.49
  -2  -6 -22   53.35   10.44
   2  -6  22   56.87    8.71
   2   6 -22   44.30    9.42
   2   6  23   36.15   10.70
  -2  -6  23   58.61    9.23
  -2  -6 -23   51.86    9.20
   2  -6  23   61.47   10.35
   2   6 -23   50.66   10.42
  -2  -6  24   66.81   11.03
  -2  -6 -24   75.91   13.15
   2  -6  24   78.29   17.05
   2   6 -24   74.64   15.11
  -2   6 -25   51.10   11.64
   2  -6 -25   58.86    9.48
  -2  -6  25   61.17   10.48
   2   6 -25   57.70   10.04
  -2  -6 -25   63.85   15.66
   2  -6  25   68.64   10.86
  -2   6  25   50.18    8.97
  -2   6 -26   13.10    3.33
  -2  -6  26   17.73    3.95
  -2  -6 -26   13.42    3.46
   2  -6  26   16.52    3.62
   2   6 -26   11.90    4.31
  -2   6  26   14.78    3.81
  -2   6 -27   16.15    4.96
  -2  -6  27   24.62    5.66
  -2  -6 -27   18.55    5.05
   2  -6  27   26.16    6.93
   2   6 -27   23.39    4.54
  -2   6  27   18.04    4.74
  -2  -6  28   48.89   10.93
  -2  -6 -28   47.77   12.00
   2  -6  28   51.31    9.50
   2   6 -28   53.90   10.37
  -2   6  28   48.32    9.91
  -2  -6  29   66.85   15.18
  -2  -6 -29   49.57   13.67
   2  -6  29   62.95   12.68
  -2   6  29   47.32   14.06
   2  -6 -30   27.89    9.87
  -2  -6  30   32.32   10.00
  -2  -6 -30   34.24    9.64
   2  -6  30   44.64    9.52
  -2   6  30   29.93   14.60
   2  -6 -31    0.98    1.76
  -2  -6  31   -0.25    1.91
  -2  -6 -31   -3.06    2.31
   2  -6  31    0.09    0.85
  -2   6  31    2.74    1.88
   2  -6 -32    9.89    4.16
  -2  -6  32    7.98    3.36
  -2  -6 -32    8.12    3.91
   2  -6  32    7.81    3.51
  -2   6  32    8.47    3.49
   2  -6 -33    4.67    2.62
  -2  -6 -33    2.18    3.47
   2  -6  33    8.28    3.38
  -2  -6 -34    0.57    1.96
   2  -6  34    4.92    2.30
   2   7   0  335.53   18.05
  -2   7   0  292.48   15.37
   2  -7  -1  588.24   28.79
  -2   7  -1  556.67   34.04
  -2   7   1  576.58   29.63
   2   7  -1  649.23   32.99
   2   7   2   92.23   14.49
  -2   7  -2   75.19    5.22
   2  -7  -2   73.67    3.70
  -2   7   2   62.97   12.02
   2   7   3   97.00    5.60
  -2   7  -3  112.64   17.01
   2  -7  -3  102.47   11.54
  -2   7   3   99.76    5.25
   2  -7  -4  522.53   26.22
  -2  -7   4  506.23   24.95
  -2   7  -4  475.01   24.31
   2   7  -4  523.07   26.79
  -2   7   4  454.91   23.03
   2   7   5  406.55   22.90
  -2  -7   5  447.99   23.18
  -2   7  -5  411.90   21.79
   2   7  -5  490.92   25.86
  -2  -7  -5  406.96   22.47
  -2   7   5  389.31   22.21
   2   7   6  904.18   47.29
  -2  -7   6  932.27   46.69
  -2   7   6  825.78   41.52
  -2  -7  -6  908.02   45.11
   2   7   7   82.80   13.66
  -2  -7   7   75.34   12.62
   2  -7  -7   78.54   12.00
  -2   7   7   92.42   17.38
   2   7  -7   93.70    6.48
  -2   7   7   96.27    9.80
   2   7   8    4.01    1.67
   2  -7  -8    1.59    0.95
  -2   7  -8    4.36    1.76
  -2  -7   8    1.85    2.00
  -2   7   8    1.57    0.75
   2   7  -8    3.00    1.60
  -2  -7  -8    4.63    2.27
   2  -7   8    5.08    3.09
   2   7   9  382.58   19.72
  -2   7  -9  407.58   21.19
   2  -7  -9  418.89   21.14
  -2  -7   9  433.84   22.31
  -2  -7   9  508.29   25.26
  -2   7   9  369.06   19.12
  -2  -7  -9  404.63   23.10
   2   7  10  471.48   24.49
  -2  -7  10  542.85   28.40
  -2   7 -10  542.50   27.54
  -2  -7 -10  545.75   27.73
  -2   7  10  526.48   26.47
   2   7  11   70.57    6.32
  -2  -7  11   72.20   11.34
  -2   7 -11   77.99   14.74
  -2  -7 -11   73.12   11.13
  -2   7  11   74.71    6.91
   2   7  12   56.05   12.80
  -2  -7  12   62.51    9.11
  -2  -7  12   61.17    9.76
  -2   7 -12   65.29   11.45
   2   7 -12   61.14   11.99
  -2   7  12   51.35    5.34
   2  -7  12   58.42   10.49
  -2  -7 -12   59.83   10.39
   2   7  13    4.95    2.36
   2  -7 -13    8.20    1.92
  -2  -7  13   10.61    5.59
  -2   7 -13    7.10    1.86
   2   7 -13    5.29    1.41
  -2   7  13    5.92    1.43
   2  -7  13    9.32    2.21
   2   7  14  133.12    9.46
   2  -7 -14  144.08   10.09
  -2   7 -14  137.73   15.24
  -2  -7  14  127.99   17.29
  -2   7  14  118.97   13.76
   2   7 -14  118.79    8.30
  -2  -7 -14  128.00   19.05
   2  -7  14  110.34   20.21
   2   7  15   47.40    9.47
   2  -7 -15   48.20   10.11
  -2  -7  15   63.58    8.74
  -2   7 -15   60.35   13.27
  -2  -7  15   65.28    8.80
  -2   7  15   73.61    6.14
   2  -7  15   71.48    7.51
   2   7 -15   56.86    9.56
  -2   7  15   58.06    5.35
   2   7  16  100.89   10.96
  -2  -7  16   98.93   17.29
   2  -7 -16  107.79   16.16
  -2  -7  16  110.68   16.10
  -2   7  16   90.39   11.05
   2   7 -16  134.41   14.30
   2  -7  16   92.68   13.82
  -2   7  16   96.42   18.93
   2   7  17   76.31    9.46
   2  -7 -17   88.25   13.94
  -2  -7  17   99.85   14.91
   2  -7  17   89.02   11.51
   2   7  18  152.70   10.40
   2  -7 -18  147.64   15.55
  -2  -7  18  156.08    5.36
   2   7 -18  161.06    5.88
  -2  -7 -18  157.99   22.44
   2  -7  18  148.03   12.33
   2   7  19    9.96    3.16
  -2  -7  19   15.55    3.40
  -2   7 -19   12.10    3.38
   2  -7 -19   11.08    3.53
  -2  -7  19    9.53    2.44
   2   7 -19   10.86    2.82
   2  -7  19   16.00    4.20
  -2  -7 -19   10.62    3.20
   2   7  20    6.25    1.49
  -2   7 -20    7.32    2.97
   2  -7 -20    6.83    2.39
  -2  -7  20    7.02    2.02
   2   7 -20    8.01    2.11
   2  -7  20    8.97    3.01
  -2   7  20    7.00    1.97
   2   7  21   67.30    7.69
   2  -7 -21   59.40   17.52
  -2   7 -21   59.73   14.24
  -2  -7  21   83.84   11.07
   2   7 -21   87.74   10.17
  -2  -7 -21   80.64   14.64
   2  -7  21   73.33   12.02
   2   7 -21   55.98   13.77
  -2   7  21   72.79   10.67
   2   7  22   24.35    4.25
   2  -7 -22   32.02    6.46
  -2   7 -22   30.29    6.21
  -2  -7  22   36.05    5.55
   2   7 -22   22.34    6.15
  -2  -7 -22   28.21    5.18
   2   7 -22   31.88    4.53
  -2   7  22   31.43    5.21
  -2   7 -23   59.81   14.33
   2  -7 -23   70.33   10.86
  -2  -7  23   68.92   10.67
   2   7 -23   67.14    9.05
  -2  -7 -23   68.14   10.73
   2  -7  23   79.94   11.53
  -2   7  23   71.48   13.88
   2  -7 -24   45.51    9.43
  -2  -7  24   46.97    5.90
   2   7 -24   42.16    6.05
  -2  -7 -24   45.47    7.54
   2  -7  24   50.60   10.92
  -2   7  24   38.97   14.99
  -2   7 -25    5.24    2.62
   2  -7 -25    0.78    2.45
  -2  -7  25    5.45    2.54
   2   7 -25    8.08    3.46
  -2  -7 -25    9.61    2.81
   2  -7  25    6.77    3.03
  -2   7  25    7.61    3.60
  -2   7 -26    3.02    2.31
   2  -7 -26    5.90    3.22
  -2  -7  26    6.95    2.96
   2   7 -26    6.67    2.95
  -2  -7 -26    6.50    3.30
   2  -7  26    9.32    4.21
  -2   7  26    5.37    2.52
   2  -7 -27    7.34    3.62
  -2  -7  27    5.03    2.24
  -2  -7 -27    7.91    4.30
   2  -7  27    4.46    2.49
  -2   7  27    6.46    3.54
   2  -7 -28    0.56    0.84
  -2  -7  28    2.78    2.01
  -2  -7 -28    1.84    1.83
   2  -7  28    2.82    2.18
  -2   7  28    3.14    1.85
  -2  -7  29   12.54    4.33
  -2  -7 -29    8.16    3.72
   2  -7  29   11.15    4.05
  -2   7  29    7.79    2.99
  -2  -7 -30    5.22    3.05
   2  -7  30    9.65    3.86
  -2   7  30    1.91    1.23
  -2  -7 -31   21.10    7.42
   2  -7  31   28.51    9.67
  -2  -7 -32    2.13    3.64
   2  -7  32    1.76    2.89
   2  -7  33    7.02    2.80
   2   8   0   31.34    5.08
  -2   8   0   28.59    7.96
  -2  -8   0   24.36    4.32
   2   8   1   78.09    7.21
  -2  -8   1   69.15   11.35
  -2   8  -1   66.75   12.60
   2   8  -1   76.30   15.85
  -2  -8  -1   67.19   12.02
  -2   8   1   66.74   11.84
   2   8   2   21.60    2.85
  -2  -8   2   20.72    3.76
  -2   8  -2   20.91    2.83
   2   8  -2   23.07    3.91
  -2  -8  -2   22.41    4.09
  -2   8   2   19.31    3.47
   2   8   3  118.67   10.14
  -2  -8   3  124.59   16.98
  -2   8  -3  119.78   10.72
  -2   8   3  118.65   10.04
   2   8  -3  129.83   11.13
   2   8   4  160.69   13.25
  -2  -8   4  169.36   14.08
  -2   8  -4  152.96   12.63
   2  -8  -4  172.37   13.57
  -2   8   4  158.14   14.42
   2  -8   4  173.65   15.42
   2   8   5   17.37    2.64
   2  -8  -5   10.18    2.32
  -2  -8   5   13.99    2.26
  -2   8  -5   15.23    2.26
   2  -8  -5   19.63    3.23
   2   8  -5   19.09    4.00
  -2   8   5   16.38    3.28
   2  -8   5   21.05    3.59
   2   8   6   54.67   11.90
   2  -8  -6   38.54    6.04
  -2   8  -6   42.32    8.93
  -2  -8   6   42.72    7.35
  -2   8   6   39.32    3.27
   2   8  -6   44.96    7.11
  -2  -8  -6   43.72    5.29
   2  -8   6   42.01    6.84
   2   8   7   27.62    5.63
  -2  -8   7   22.31    3.62
  -2   8  -7   26.54    5.85
   2  -8  -7   20.96    5.81
  -2  -8   7   24.91    4.13
  -2   8   7   26.89    5.49
  -2  -8  -7   23.66    4.96
   2  -8   7   29.17    5.88
   2   8  -7   25.42    5.29
   2   8   8   54.89   10.45
  -2  -8   8   47.55    9.54
  -2   8  -8   46.86    9.37
   2  -8  -8   39.30    7.70
  -2  -8   8   39.85    8.72
  -2   8   8   40.14    5.35
   2  -8   8   50.36   10.42
   2   8   9   -0.51    3.57
  -2  -8   9    0.06    2.10
  -2   8  -9    1.50    0.80
   2  -8  -9   -1.49    1.22
   2  -8  -9   10.23    4.12
  -2   8   9   -0.78    2.13
   2  -8   9    2.60    1.99
   2   8  10  199.37   22.92
  -2  -8  10  189.02   19.64
  -2   8 -10  170.45   17.87
   2  -8 -10  195.13   20.00
  -2  -8  10  178.76   19.86
  -2   8  10  172.46   17.82
   2  -8  10  179.46   18.95
  -2   8  10  178.06   26.26
   2   8  11   -0.20    1.58
  -2  -8  11    0.45    0.68
  -2   8 -11    2.25    1.56
   2  -8 -11    0.94    0.61
  -2   8  11    0.87    1.48
   2  -8  11    3.36    1.60
  -2   8  11    0.82    1.24
   2   8  12   65.19   12.52
   2  -8 -12   51.87   10.04
  -2   8 -12   60.90   13.32
  -2  -8  12   52.51    9.83
  -2   8  12   49.37    7.01
  -2  -8 -12   58.41   10.66
   2  -8  12   54.46   12.25
   2   8 -12   55.63   11.49
  -2   8  12   54.25    8.05
   2   8  13  110.12   15.83
   2  -8 -13   88.89   14.72
  -2   8 -13   99.25   15.86
  -2   8  13   93.58    5.63
   2   8 -13  105.44    9.60
  -2  -8 -13  104.69   13.10
   2  -8  13  110.68    8.50
  -2   8  13  103.82   18.47
   2   8  14  203.36    7.52
   2  -8 -14  216.78   10.28
  -2   8 -14  216.20   15.83
  -2   8  14  192.67   11.89
   2   8 -14  222.77    7.31
   2  -8  14  242.10   21.50
  -2   8  14  202.55   22.44
   2   8  15   21.82    5.30
   2  -8 -15   24.67    4.11
  -2  -8  15   27.14    5.25
  -2   8 -15   29.97    7.00
  -2  -8  15   23.23    5.19
  -2   8  15   20.71    4.36
   2  -8  15   28.91    5.88
   2   8 -15   31.64    9.69
  -2   8  15   29.12    5.53
   2   8  16   58.62   10.02
  -2  -8  16   58.27    8.42
  -2  -8  16   54.13    8.48
   2  -8  16   71.39   11.53
   2   8 -16   52.38   13.83
  -2   8  16   55.92    9.14
   2   8  17   20.88    4.30
  -2   8 -17   20.99    4.79
  -2  -8  17   23.54    5.38
  -2  -8  17   23.53    4.48
   2  -8  17   23.12    4.72
   2   8  18   11.63    2.91
  -2  -8  18   15.34    3.23
  -2  -8  18   16.41    4.26
   2  -8  18   14.90    3.43
  -2  -8 -18   13.56    3.36
  -2   8  18   15.60    3.31
   2   8  19   13.51    4.41
  -2  -8  19   17.03    4.70
  -2   8 -19   15.34    4.86
  -2  -8  19   16.58    4.28
   2   8 -19   13.79    4.58
   2  -8  19   19.73    5.43
  -2  -8 -19   16.08    4.86
   2   8  20   26.53    4.75
  -2   8 -20   32.68    5.99
   2  -8 -20   26.40    6.77
  -2  -8  20   26.57    4.69
   2   8 -20   27.00    6.20
  -2  -8 -20   32.09    5.54
   2  -8  20   41.56    6.04
  -2   8  20   28.14    4.48
   2   8  21   -1.07    1.50
   2  -8 -21    4.31    2.10
  -2   8 -21    0.52    1.53
  -2  -8  21    0.60    0.81
   2   8 -21    1.30    1.53
  -2  -8 -21    1.00    2.38
   2   8 -21    1.03    1.05
  -2   8  21    3.70    1.49
  -2   8 -22   54.50   14.29
   2  -8 -22   64.90   12.67
  -2  -8  22   52.55   10.08
   2   8 -22   56.59   11.85
  -2  -8 -22   64.16   13.09
   2  -8  22   79.11   11.89
  -2   8  22   57.16   14.07
  -2   8 -23   38.83    9.56
   2  -8 -23   42.78    9.21
  -2  -8  23   43.21    8.57
  -2  -8 -23   47.21   10.40
   2  -8  23   49.40   10.36
  -2   8  23   38.60    9.12
   2  -8 -24   43.42    9.95
  -2  -8  24   35.03    8.40
  -2  -8 -24   44.79   10.95
  -2   8  24   30.10   10.25
  -2   8 -25   95.16   28.92
   2  -8 -25  118.62   30.45
  -2  -8 -25  131.42   35.83
   2  -8  25  142.83   30.15
  -2   8  25  113.23   27.36
   2  -8 -26    4.90    2.75
  -2  -8 -26    4.87    3.12
   2  -8  26    8.65    2.91
  -2   8  26    1.10    1.95
   2  -8 -27   31.61   10.74
  -2  -8 -27   34.13   12.25
   2  -8  27   46.73   13.31
   2  -8 -28   25.51    9.07
  -2  -8 -28   35.34   12.01
   2  -8  28   38.38   10.96
  -2  -8 -29   17.21    5.79
   2  -8  29   27.30    7.06
  -2  -8 -30    9.90    3.12
   2  -8  30   15.93    3.24
  -2  -8 -31    7.27    3.03
   2   9   0    4.50    1.94
  -2   9   0    3.24    1.58
  -2  -9   0    7.96    3.09
   2   9   1  303.65   31.17
  -2  -9   1  311.17   32.16
  -2   9  -1  275.48   28.44
   2   9  -1  256.08   26.45
  -2  -9  -1  306.68   31.32
  -2   9   1  263.10   33.20
   2   9   2  260.69   26.76
  -2  -9   2  295.27   30.16
  -2   9  -2  263.03   27.65
   2   9  -2  319.18   32.55
  -2  -9  -2  288.67   29.55
  -2   9   2  252.69   26.20
   2   9   3   33.74    6.51
  -2  -9   3   38.17    8.86
  -2   9  -3   32.90    9.52
   2   9  -3   37.76   11.85
  -2  -9  -3   33.76    7.40
  -2   9   3   31.24    7.43
   2   9   4   50.62    8.17
  -2  -9   4   39.41    5.64
  -2   9  -4   41.31    7.23
   2   9  -4   43.15    4.99
  -2  -9  -4   45.30    6.91
  -2   9   4   44.60   10.39
   2  -9   4   43.75    5.47
   2   9   5   24.57    5.52
  -2  -9   5   26.93    6.17
  -2   9  -5   28.76    6.09
  -2   9   5   33.10    6.29
   2   9  -5   29.37    5.83
   2  -9   5   27.38    5.52
   2   9   6  119.03    5.33
  -2   9  -6  109.92    5.11
   2   9  -6  112.73    5.19
  -2   9   6  107.38    4.78
   2   9   7   49.92    6.96
  -2   9  -7   46.21    9.47
  -2   9   7   43.38    6.67
   2   9   8  110.80   16.81
   2  -9  -8   98.26    4.00
  -2   9  -8   96.88   16.66
  -2  -9   8   80.52   14.97
  -2   9   8   89.98    6.26
   2   9  -8  103.21    4.56
  -2  -9  -8  110.29   12.24
   2  -9   8  106.78   16.95
   2   9   9  102.00   10.26
   2  -9  -9   99.52   14.65
  -2  -9   9   98.89   13.49
  -2   9  -9  103.31   10.43
   2   9  -9  103.78   13.26
  -2   9   9   88.61   16.97
   2  -9   9  110.32   14.05
   2   9  10   23.02    6.22
  -2  -9  10   20.90    5.06
  -2   9 -10   23.25    6.94
   2  -9 -10   18.31    6.50
  -2   9  10   20.82    4.30
   2  -9  10   31.77    7.03
   2   9  11    6.63    3.00
   2  -9 -11    5.89    1.87
  -2  -9  11    6.54    2.21
  -2   9 -11    8.99    3.03
   2  -9 -11    0.00    4.91
   2   9 -11    4.80    1.94
  -2   9  11    6.13    2.14
   2  -9  11   10.02    3.41
   2   9  12   34.79    6.44
   2  -9 -12   25.83    6.28
  -2  -9  12   29.45    7.09
  -2   9 -12   32.16    7.97
   2  -9 -12   71.99   17.99
   2   9 -12   32.58    9.17
  -2   9  12   26.56    8.06
   2  -9  12   34.42    7.79
   2   9  13   96.87   19.06
   2  -9 -13   79.53   18.51
  -2  -9  13   84.07   17.29
  -2   9 -13  100.87   18.36
   2   9 -13   92.51   21.71
  -2   9  13   91.10   13.41
   2  -9  13  118.38   20.46
   2   9  14   86.62   17.49
   2  -9 -14   83.32   17.23
  -2  -9  14   80.03   16.08
  -2   9 -14   80.37   18.11
   2   9 -14  102.38   13.91
  -2   9  14   89.21    9.59
   2  -9  14  111.25   14.30
  -2   9  14   81.18   16.72
   2   9  15    5.54    2.35
  -2  -9  15    3.13    1.31
  -2   9 -15    4.63    1.72
   2  -9 -15    0.95    1.06
   2   9 -15    4.88    1.89
   2  -9  15    6.99    2.35
  -2   9  15    3.00    1.39
   2   9  16  163.87   13.11
  -2  -9  16  165.36   13.26
  -2   9 -16  158.25   12.53
   2  -9 -16  165.32   12.95
   2   9 -16  187.59   55.00
   2  -9  16  161.42   14.80
   2   9  17   35.71    8.73
   2  -9 -17   34.76   10.48
  -2  -9  17   39.51   15.49
   2   9 -17   26.73    8.17
   2   9  18   -1.28    1.57
   2  -9 -18    2.37    2.00
   2  -9  18    2.99    1.74
   2   9  19   18.55    5.14
  -2   9 -19   23.81    6.26
   2  -9 -19   18.43    5.69
   2   9 -19   22.02    6.67
  -2  -9 -19   24.21    6.67
   2  -9  19   28.91    6.65
  -2   9 -20    1.32    1.08
   2  -9 -20   -1.10    1.75
   2   9 -20    1.56    1.00
  -2  -9 -20   -1.62    2.29
   2  -9  20    2.03    1.61
  -2   9 -21   13.74    4.17
   2  -9 -21   12.08    3.99
  -2  -9 -21   16.61    6.16
   2  -9  21   20.86    4.32
  -2   9  21   10.12    5.27
  -2   9 -22   23.43    9.43
   2  -9 -22   26.35    9.02
  -2  -9 -22   64.77   15.35
   2  -9  22   45.37    9.48
  -2   9  22   29.53   14.80
  -2   9 -23   23.23    8.37
   2  -9 -23   20.85    7.61
  -2  -9 -23   28.38   13.67
   2  -9  23   36.98    8.29
  -2   9  23   27.79    8.99
  -2  -9 -24   31.99   10.64
   2  -9  24   37.70   10.38
  -2  -9 -25   -1.49    2.41
   2  -9  25   -0.48    2.10
  -2  -9 -26    8.85    4.14
   2  -9  26    6.95    2.91
  -2  -9 -27    0.99    1.72
   2  -9  27    6.42    3.24
  -2  -9 -28   13.48    4.06
   2  10   0   32.59    8.94
  -2  10   0   34.08    5.72
   2  10   1   66.27   11.19
  -2  10  -1   80.23   14.76
   2  10  -1   67.39   12.06
  -2  10   1   68.49   16.50
   2  10   2   79.13   16.62
  -2 -10   2   67.34   15.89
  -2  10  -2   75.92   14.27
  -2  10   2   73.61   14.88
   2  10  -2   76.05    9.54
   2 -10   2   82.93   14.69
   2  10   3   57.92   12.56
  -2 -10   3   54.61   11.85
  -2  10  -3   61.38   12.34
   2  10  -3   54.75   11.32
  -2 -10  -3   57.93   13.75
  -2  10   3   64.57    8.09
   2 -10   3   75.66   12.43
   2  10   4    9.24    2.48
  -2 -10   4    8.50    2.55
  -2  10  -4    9.30    2.03
  -2  10   4    9.94    2.55
   2  10  -4   13.33    3.28
   2 -10   4   11.56    2.70
   2  10   5   12.18    2.57
  -2 -10   5   10.69    3.34
  -2  10  -5   15.67    3.88
   2  10  -5   14.63    3.44
  -2 -10  -5   17.99    4.41
  -2  10   5   13.28    3.69
   2 -10   5   21.39    4.46
   2  10   6   -0.45    1.15
  -2 -10   6    2.96    2.11
  -2  10  -6    3.97    2.45
   2  10  -6    2.01    1.25
  -2 -10  -6   -1.05    1.83
  -2  10   6    4.93    1.77
   2 -10   6    4.33    1.31
   2  10   7   30.44    4.75
  -2 -10   7   20.74    6.74
  -2  10  -7   23.59    4.07
   2  10  -7   27.34    5.44
  -2 -10  -7   27.44    5.75
  -2  10   7   22.56    5.15
   2 -10   7   31.49    5.49
   2  10   8   47.80    9.52
  -2 -10   8   42.17    9.91
  -2  10  -8   54.45   13.70
  -2  10   8   51.51    7.37
   2  10  -8   50.41    9.73
   2 -10   8   60.61   12.86
   2  10   9    2.14    1.54
  -2 -10   9    7.12    2.65
  -2  10  -9   -0.06    2.36
   2  10  -9    5.38    1.97
  -2 -10  -9    3.09    1.65
  -2  10   9    4.13    1.68
   2 -10   9    5.31    1.60
   2  10  10   63.74   16.97
  -2  10 -10   59.68   13.63
   2 -10 -10   87.09   11.64
  -2  10  10   63.03   13.81
   2 -10  10   75.22   11.23
   2  10  11    5.94    2.38
  -2 -10  11    4.17    2.03
  -2  10 -11    5.20    2.32
  -2  10  11    3.81    1.53
   2  10 -11    8.67    3.33
   2 -10  11   10.72    3.54
   2  10  12   72.04   15.21
  -2  10 -12   77.58   15.93
  -2  10  12   72.00    7.29
   2  10  13   61.46   14.03
  -2  10 -13   82.43   13.96
   2  10 -13   62.37   14.76
  -2  10  13   50.48   11.12
   2  10  14   34.46   14.64
  -2  10 -14   34.37   15.96
   2  10 -14   31.20    8.28
  -2 -10 -14   34.96    8.19
   2 -10  14   45.11    7.18
   2  10  15   31.68    7.77
   2  10 -15   31.62   10.67
   2 -10  15   34.48   14.31
   2  10  16   37.06    9.75
  -2  10 -16   42.35   12.61
   2 -10 -16    1.90    2.91
   2  10 -16   40.72   12.58
   2 -10  16   57.24   12.55
   2  10  17   69.27   18.37
   2  10 -17   64.45   20.19
  -2  10  17   61.63   16.19
  -2  10 -18   18.88    6.51
  -2  10 -20    2.85    1.83
   2 -10  20    2.15    1.41
  -2  10 -21    4.57    2.81
   2 -10  21   11.86    4.01
  -2  10 -22   11.10    4.80
   2 -10  22   14.68    5.55
   2 -10  23   17.07    4.03
  -2 -10 -24    5.19    2.18
   2  11   0    4.58    2.53
  -2  11   0    5.55    2.71
  -2 -11   0    9.30    4.69
   2  11   1   50.73   10.44
  -2  11  -1   56.96   13.55
   2  11  -1   56.58   12.19
  -2  11   1   54.76    8.89
   2  11   2   56.53   13.22
  -2  11  -2   55.72   10.29
   2  11  -2   54.49   13.73
  -2  11   2   64.18   15.33
   2 -11   2   71.53   12.84
   2  11   3   19.18    4.87
  -2 -11   3   19.65    5.94
  -2  11  -3   24.16    5.34
  -2  11   3   20.21    5.55
   2  11  -3   17.64    4.36
   2 -11   3   27.78    6.75
   2  11   4    4.41    2.04
  -2 -11   4    5.34    3.14
  -2  11  -4    6.79    3.41
   2  11  -4    5.58    2.42
  -2 -11  -4   13.35    4.46
  -2  11   4   11.05    3.15
   2 -11   4   14.86    3.57
   2  11   5   25.44    7.19
  -2  11  -5   30.20    6.28
   2  11  -5   27.86    7.74
  -2  11   5   28.63    7.40
   2 -11   5   32.49    7.74
   2  11   6    6.68    2.99
  -2  11  -6    7.72    3.44
   2  11  -6    8.84    3.72
  -2  11   6    8.66    3.93
   2 -11   6   14.82    3.75
   2  11   7   27.61    6.36
  -2  11  -7   20.41    6.17
   2  11  -7   23.84    6.27
  -2  11   7   23.13    7.47
   2  11   8   12.60    3.28
  -2  11  -8    9.80    5.09
   2  11  -8   11.75    3.59
  -2  11   8   11.80    3.17
  -2 -11  -8   15.66    4.05
   2 -11   8   17.27    3.65
   2  11   9   34.08    7.53
  -2  11  -9   36.15   10.01
   2  11  -9   39.33   11.26
  -2  11   9   31.68   16.29
   2 -11   9   41.63    8.41
   2  11  10   31.70   16.29
  -2  11 -10   34.28   11.65
  -2  11  10   28.73    8.74
  -2 -11 -10   31.03   16.48
   2 -11  10   49.42   12.17
   2  11  11   30.71    8.62
  -2  11 -11   30.92    8.85
   2  11  12   10.17    3.19
  -2  11 -12   12.35    5.07
   2  11  13   16.44    4.89
  -2  11 -13   15.75    6.41
   2  11 -13   12.83    4.57
  -2 -11 -13   14.84    4.86
   2  11  14    6.66    3.75
  -2  11 -14   11.32    3.94
   2  11 -14    6.86    3.69
  -2 -11 -14   10.69    3.94
   2 -11  14    8.57    3.12
   2  11  15    7.28    2.74
  -2  11 -15    8.71    4.33
   2  11 -15   10.56    4.33
  -2 -11 -15   11.51    4.93
  -2  11 -16   33.80   13.46
   2  11 -16   28.26   10.62
  -2 -11 -16   43.87   13.08
   2 -11  16   49.97   13.85
  -2  11 -18   30.89   11.89
  -2 -11 -18   32.17   11.52
   2  12   0   77.33   23.79
  -2  12   0  109.04   19.65
   2  12   1    7.36    3.03
  -2  12  -1    7.76    3.53
   2  12  -1    6.99    3.51
  -2  12   1    7.33    3.44
   2  12   2   10.51    3.69
  -2  12  -2    9.32    3.88
   2  12  -2   10.75    4.76
  -2  12   2    9.68    3.59
   2  12   3   -0.01    1.84
  -2  12  -3    1.54    1.38
   2  12  -3   -0.09    2.11
  -2  12   3   -2.44    1.93
   2  12   4    1.94    1.95
  -2  12  -4    2.45    1.80
   2  12  -4    0.71    1.46
  -2  12   4    2.94    1.78
   2  12   5   11.17    4.54
  -2  12  -5   11.91    4.38
   2  12  -5   13.28    5.78
  -2  12   5    6.49    2.94
   2  12   6    7.23    2.95
  -2  12  -6   11.05    4.79
   2  12  -6   14.92    6.53
  -2  12   6   13.93   20.49
   2  12   7   63.39   21.36
  -2  12  -7   61.48   21.68
   2  12  -7   67.03   25.42
   2  12   8   13.25    4.82
  -2  12  -8   15.53    6.28
   2  12  -8   14.87    6.40
   2  12   9   16.17    6.51
  -2  12  -9   12.33    5.38
   2  12  -9   13.58   20.07
   2  12  10   11.97    3.34
  -2  12 -10   16.83    6.79
   2  12 -10   21.74    7.43
  -2  12 -11   37.93   14.99
  -2  12 -12    7.27    3.38
  -2  12 -13   20.56    8.78
  -2  12 -14   23.83    9.43
  -2  12 -15    7.39    4.04
   2  13   0    1.93    3.24
   2  13   1  147.09   32.09
   2  13  -1  125.62   28.28
   2  13   2    1.41    2.37
   2  13  -2    3.03    4.54
   2  13   3    5.61    2.62
   2  13  -3    5.42    2.27
   2  13  -4   16.77    6.74
  -3   0   0    0.29    0.54
  -3   0   0    3.26    1.67
  -3   0   0    0.21    0.77
  -3   0  -1  127.33    8.74
  -3   0   1  121.30    8.17
  -3   0  -1  117.65    8.48
  -3   0   1  119.49    8.04
  -3   0   1  113.64    7.62
  -3   0  -2  581.04   18.94
  -3   0   2  618.74   20.03
  -3   0  -2  533.70   17.28
  -3   0   2  559.36   18.13
  -3   0   2  553.54   17.92
  -3   0  -3    6.65    1.75
  -3   0   3    5.74    1.40
  -3   0  -3    5.24    1.21
  -3   0   3    7.22    1.34
  -3   0   3    7.68    1.33
  -3   0  -4  261.53    9.42
  -3   0   4  232.99    8.27
  -3   0  -4  250.29    9.84
  -3   0   4  220.93   14.31
  -3   0   4  221.73   14.33
  -3   0  -5  888.51   28.78
  -3   0   5  938.33   29.58
  -3   0  -5  846.02   26.91
  -3   0   5  832.19   26.50
  -3   0   5  838.70   26.68
  -3   0  -6   13.57    2.65
  -3   0   6   13.13    2.88
  -3   0  -6   13.17    2.06
  -3   0   6   12.75    2.13
  -3   0   6   12.44    1.93
  -3   0  -7  743.34   24.06
  -3   0  -7  713.60   23.45
  -3   0   7  734.91   24.05
  -3   0   7  754.31   24.35
   3   0  -8   73.92    5.25
  -3   0  -8   58.86    4.60
  -3   0  -8   72.96    9.70
  -3   0   8   65.39    5.00
   3   0   8   59.71    4.30
  -3   0   8   71.77    7.66
   3   0  -9   29.64    5.25
  -3   0  -9   33.31    6.30
  -3   0  -9   34.93    6.49
  -3   0   9   38.02    5.35
   3   0   9   38.02    7.37
  -3   0   9   38.75    5.59
   3   0 -10  698.54   19.65
  -3   0 -10  666.50   19.95
   3   0  10  753.64   22.26
  -3   0  10  706.78   20.54
  -3   0 -11 1641.98   46.09
  -3   0 -11 1611.70   44.82
   3   0  11 1643.27   45.92
  -3   0  11 1575.47   43.78
  -3   0 -12  251.27    9.25
  -3   0 -12  277.13    9.05
  -3   0  12  256.35    9.87
   3   0 -13    0.26    0.55
  -3   0 -13   -2.61    3.01
   3   0 -13    0.37    0.85
   3   0  13    1.32    1.22
  -3   0  13   -1.69    2.93
   3   0 -14  332.52   18.33
  -3   0 -14  357.65   19.40
   3   0  14  383.41   21.23
  -3   0  14  376.98   21.00
  -3   0 -15  298.08   16.52
   3   0 -15  301.13   18.54
  -3   0 -15  304.76   17.19
   3   0  15  333.27   18.36
  -3   0  15  328.96   18.47
   3   0 -16  173.42   19.20
  -3   0 -16  160.52   10.43
   3   0  16  171.39    9.63
  -3   0  16  161.63    7.98
  -3   0 -17  195.33    8.86
   3   0 -17  206.39    9.85
  -3   0 -17  199.61   10.40
   3   0  17  203.94    9.03
  -3   0  17  203.25    9.43
  -3   0 -18   26.38    4.30
   3   0 -18   27.53    6.80
  -3   0 -18   31.63    5.63
   3   0  18   29.51    7.22
  -3   0  18   32.33    6.25
  -3   0 -19  535.62   26.97
  -3   0 -19  527.48   26.43
   3   0  19  558.10   28.00
  -3   0  19  527.69   27.81
  -3   0 -20   38.50    7.31
   3   0 -20   51.14    7.99
  -3   0 -20   40.34    6.65
   3   0  20   40.09    9.59
  -3   0  20   49.14    8.90
  -3   0 -21   17.66    3.87
   3   0 -21   16.19    4.78
  -3   0 -21   19.98    3.92
   3   0  21   17.70    5.41
  -3   0  21   18.67    3.61
  -3   0 -22    1.53    0.99
   3   0 -22    3.13    1.22
  -3   0 -22   -0.20    1.73
   3   0  22    0.30    2.21
  -3   0  22    2.19    1.67
  -3   0 -23    6.14    1.50
   3   0 -23    4.82    1.64
  -3   0 -23    3.97    1.58
   3   0  23    2.82    1.15
  -3   0  23    5.83    2.59
  -3   0 -24   45.32    8.42
   3   0 -24   50.15   10.04
  -3   0 -24   55.00    6.58
   3   0  24   51.59   11.17
  -3   0  24   54.02    9.30
  -3   0 -25   11.02    2.33
   3   0 -25   12.67    3.56
  -3   0 -25   13.05    3.09
   3   0  25   13.28    2.59
  -3   0  25   12.13    2.70
  -3   0 -26   48.04    9.71
   3   0 -26   52.38    8.16
  -3   0 -26   53.62   10.91
   3   0  26   52.95    9.99
  -3   0  26   60.61    9.81
  -3   0 -27   -0.58    0.95
   3   0 -27    1.78    0.99
  -3   0 -27    1.01    0.80
   3   0  27    0.30    0.87
  -3   0  27    1.69    1.58
  -3   0 -28   34.05    6.77
   3   0 -28   49.71   10.39
  -3   0 -28   39.84    7.83
   3   0  28   40.00    9.11
  -3   0  28   48.74    8.24
   3   0 -29    1.42    0.83
  -3   0 -29   -1.95    1.56
   3   0  29    1.16    0.80
  -3   0  29   -0.40    2.45
   3   0 -30    4.69    1.95
  -3   0 -30    2.53    1.32
   3   0  30    5.59    2.15
  -3   0  30    2.03    1.19
   3   0 -31    5.43    2.27
  -3   0 -31    5.67    2.57
   3   0  31    5.18    2.80
  -3   0  31    6.25    3.75
   3   0 -32    4.70    2.22
   3   0  32    4.09    1.90
  -3   0  32    4.65    3.03
   3   0 -33  100.76   19.92
   3   0  33   96.43   21.23
  -3   0  33   93.99   24.48
   3   0 -34   11.69    3.29
  -3   0  34    8.16    4.62
   3   0 -35    2.62    2.08
  -3   0  35    6.73    2.76
   3   0 -36    4.44    2.17
  -3   0  36    2.01    3.51
   3   0 -37    3.73    1.76
  -3   0  37   -0.65    2.49
  -3   1   0  829.34   27.14
  -3  -1   0  823.46   26.58
  -3  -1   0  816.83   26.12
  -3   1   0  830.66   26.22
  -3  -1   0  827.50   25.88
  -3   1  -1  491.08   16.53
   3   1   1  548.61   17.39
  -3  -1   1  507.23   16.19
  -3  -1   1  533.29   17.56
  -3   1  -1  510.58   16.47
  -3  -1  -1  497.98   16.50
  -3   1   1  483.98   16.14
   3  -1   1  579.06   18.82
  -3   1   1  509.53   16.76
  -3  -1  -1  507.00   16.74
  -3   1   1  503.23   16.85
  -3   1  -2   54.67    7.37
  -3   1  -2   49.12    3.82
  -3  -1   2   56.80    3.97
  -3  -1   2   57.69    7.46
   3   1  -2   66.78    4.98
  -3  -1  -2   68.29    7.37
  -3  -1  -2   59.23    9.90
  -3   1   2   56.99    4.16
   3  -1   2   51.55    3.76
  -3   1   2   55.98    7.40
  -3   1   2   53.14    4.06
  -3  -1   3   47.74    6.54
  -3   1  -3   51.96   11.96
  -3  -1   3   46.32    3.35
  -3   1  -3   48.81    3.55
   3   1   3   46.24    3.83
   3   1  -3   56.42    8.93
  -3  -1  -3   50.61    7.85
  -3  -1  -3   58.97   10.05
  -3   1   3   66.34    4.90
  -3   1   3   51.47    7.78
  -3   1   3   65.11    8.02
  -3   1  -4 1502.71   47.30
  -3  -1   4 1485.13   46.11
  -3  -1   4 1504.03   47.15
  -3   1  -4 1444.52   44.77
   3   1   4 1489.89   46.16
  -3  -1  -4 1475.58   46.36
  -3  -1  -4 1569.27   49.38
  -3   1   4 1464.92   45.70
  -3   1   4 1528.50   47.86
  -3   1   4 1507.88   47.43
  -3  -1   5  263.00    9.67
  -3   1  -5  227.94    8.47
  -3  -1   5  265.73    9.16
  -3   1  -5  242.76    8.25
   3   1   5  259.27    9.31
   3   1  -5  245.01    8.81
  -3  -1  -5  271.80    9.63
  -3  -1  -5  254.09    9.40
  -3   1   5  264.75    9.15
  -3   1   5  274.56    9.49
  -3   1   5  274.61    9.66
  -3   1  -6  348.03   12.95
  -3   1  -6  353.51   11.69
  -3  -1   6  369.04   12.64
   3   1   6  364.47   11.85
  -3  -1   6  366.95   12.51
  -3  -1  -6  369.50   13.14
  -3  -1  -6  355.36   12.21
  -3   1   6  369.50   12.25
  -3   1   6  359.88   12.29
   3   1   7  154.43   10.63
  -3   1  -7  149.73   14.51
  -3   1  -7  154.94   10.10
  -3  -1   7  156.76   10.52
  -3  -1   7  163.66   10.78
  -3  -1  -7  166.99   13.83
  -3  -1  -7  154.49   10.41
   3   1  -7  151.45   10.03
  -3   1   7  156.36   10.21
  -3   1   7  154.53   10.37
  -3  -1   8  232.14    8.66
  -3   1  -8  216.71   14.07
  -3  -1   8  218.00   13.94
  -3   1  -8  227.71    7.83
   3  -1  -8  245.26    8.74
   3   1   8  241.54    8.23
  -3  -1  -8  235.98   10.80
   3   1  -8  222.22   14.49
  -3  -1  -8  239.20    8.69
  -3   1   8  235.45    8.01
  -3   1   8  221.09   14.33
  -3  -1   9  340.34   10.90
  -3   1  -9  358.37   11.18
  -3  -1   9  353.22   10.91
  -3   1  -9  368.21   11.00
   3  -1  -9  348.89   13.04
   3   1   9  347.04   11.32
  -3  -1  -9  351.59   11.02
   3   1  -9  330.96   10.22
  -3  -1  -9  362.91   11.93
  -3   1   9  388.71   11.77
  -3   1   9  348.51   11.17
  -3  -1  10  770.98   22.59
  -3   1 -10  738.88   21.50
  -3  -1  10  761.88   25.13
  -3   1 -10  781.73   22.30
   3  -1 -10  737.40   21.63
   3   1  10  764.93   21.66
  -3  -1 -10  796.68   23.41
   3   1 -10  775.13   21.86
  -3  -1 -10  735.97   21.67
  -3   1  10  801.26   22.31
  -3   1  10  726.29   21.87
  -3  -1  11  254.62    8.70
  -3   1 -11  239.52    8.14
  -3  -1  11  251.78    8.53
  -3   1 -11  249.10    7.80
   3  -1 -11  222.99    7.84
   3   1  11  243.15    8.08
  -3   1  11  261.53    7.76
   3   1 -11  248.81    7.68
  -3  -1 -11  243.59    8.58
  -3  -1 -11  240.86    8.38
  -3   1  11  254.08    8.93
   3  -1 -12  125.65    8.26
  -3   1 -12  118.10   14.78
  -3  -1  12  120.19    8.34
   3  -1 -12  125.08    9.64
  -3   1 -12  117.35    8.80
   3   1  12  131.90    8.81
  -3  -1  12  113.40    8.06
   3  -1  12  123.17   10.89
  -3  -1 -12  115.42    7.97
  -3  -1 -12  119.10    8.16
  -3   1  12  118.79    8.23
   3  -1 -13   72.58    5.34
   3   1  13   84.32    4.61
  -3   1 -13   82.25    4.95
  -3  -1  13   75.81    4.59
   3  -1 -13   77.54    4.74
  -3   1 -13   85.38    4.63
  -3  -1 -13   89.02    9.21
   3  -1  13   85.65    5.55
   3   1 -13   84.82    4.23
  -3  -1 -13   86.01    5.18
  -3   1  13   90.37    5.53
  -3  -1  14   79.50   13.16
  -3   1 -14   73.95    4.79
   3  -1 -14   75.42    8.58
  -3   1 -14   71.99    4.09
   3   1  14   71.83    4.29
   3   1 -14   91.11    7.01
  -3  -1 -14   70.86    4.76
   3   1 -14   74.50    3.76
  -3   1  14   79.40   11.24
   3   1  15  140.06    8.26
  -3  -1  15  135.83    8.39
   3   1 -15  118.78   10.71
  -3  -1 -15  125.21   11.84
  -3  -1 -15  130.22    7.89
   3   1 -15  124.81   11.86
  -3   1  15  129.02    8.00
  -3   1 -16   74.98   12.84
   3  -1 -16   78.19   13.15
  -3   1 -16   74.18    7.94
   3   1  16   81.89    7.94
  -3  -1  16   75.67    8.01
   3   1 -16   81.06    8.44
  -3  -1 -16   87.56    9.19
  -3   1  16   93.16   11.59
  -3  -1  17   68.51   13.54
   3   1 -17   57.24   12.84
  -3  -1 -17   53.00    6.05
  -3  -1 -17   56.73   10.36
  -3   1  17   66.19   12.06
  -3   1 -18  806.42   39.95
  -3   1 -18  818.58   40.95
   3  -1 -18  868.84   43.02
  -3  -1  18  820.42   41.00
   3   1 -18  833.33   41.34
  -3  -1 -18  786.23   38.81
  -3  -1 -18  791.78   42.95
  -3   1  18  819.79   40.86
  -3   1 -19  958.87   47.56
  -3  -1  19  989.83   50.05
  -3   1 -19  930.79   45.69
  -3  -1 -19  937.15   46.09
  -3  -1 -19  954.55   47.28
   3   1 -19  985.54   48.62
  -3   1  19  946.61   48.51
  -3   1 -20   43.19    8.21
   3  -1 -20   55.29   11.48
  -3   1 -20   50.96   10.11
   3   1  20   45.64    9.69
  -3  -1  20   54.63   12.04
  -3  -1 -20   44.08    8.62
  -3  -1 -20   53.59   14.33
  -3   1  20   56.60   17.39
  -3   1 -21  384.91   19.74
  -3   1 -21  386.74   19.50
   3  -1 -21  390.73   30.56
  -3  -1  21  395.39   23.51
   3   1  21  396.22   20.21
   3   1 -21  404.44   20.99
  -3  -1 -21  397.04   22.79
  -3  -1 -21  387.07   19.82
  -3   1  21  385.39   21.34
  -3   1 -22  340.49   26.88
   3  -1 -22  357.86   28.39
  -3   1 -22  323.24   25.51
  -3  -1  22  335.76   29.24
   3   1 -22  361.80   28.45
   3  -1  22  394.39   30.76
  -3   1  22  396.53   40.27
  -3  -1  23    4.88    1.95
   3  -1 -23    2.26    1.90
  -3   1 -23    2.08    1.67
   3   1  23    0.07    1.13
   3   1 -23    0.57    0.85
  -3  -1 -23    0.90    1.52
   3  -1  23    1.62    1.57
  -3  -1 -23    1.73    0.80
  -3   1  23    4.02    2.38
  -3   1 -24   18.37    3.46
  -3  -1  24   29.36    4.90
   3  -1 -24   22.02    4.83
  -3   1 -24   24.33    4.80
   3   1  24   28.26    4.93
   3   1 -24   25.45    4.60
   3  -1  24   29.91    6.02
  -3  -1 -24   29.19    7.01
  -3   1  24   29.11    6.34
   3   1  25   18.59    5.10
  -3   1 -25   27.59    6.08
  -3  -1  25   31.78    6.03
   3  -1 -25   34.69    6.55
  -3   1 -25   24.93    5.69
   3   1  25   28.42    5.58
   3   1 -25   25.66    6.23
   3  -1  25   28.61    5.87
  -3  -1 -25   38.89    9.44
  -3   1  25   28.74    5.37
   3   1  26    9.62    2.32
  -3   1 -26   12.21    2.78
   3  -1 -26    9.59    2.40
  -3   1 -26   12.84    2.51
  -3  -1  26   17.11    3.79
   3   1 -26   17.61    4.02
  -3  -1 -26   15.69    3.69
   3  -1  26   11.09    2.98
  -3   1  26   13.05    3.06
   3   1  27   33.79    6.16
  -3   1 -27   43.97    9.01
   3  -1 -27   60.47   11.85
  -3   1 -27   48.48    7.91
  -3  -1  27   64.98   12.62
   3   1 -27   57.85   14.31
  -3  -1 -27   52.75    9.38
   3  -1  27   50.22    9.89
  -3   1  27   51.82    9.20
   3   1  28   18.93    5.04
  -3   1 -28   28.50    7.89
   3  -1 -28   40.18    7.77
  -3   1 -28   31.90    5.97
  -3  -1  28   40.94    8.18
   3   1 -28   33.41    9.48
  -3  -1 -28   42.88    5.93
   3  -1  28   34.82    6.49
  -3   1  28   37.07    6.18
   3  -1 -29   14.36    3.69
  -3   1 -29   14.05    3.47
  -3  -1  29   13.51    4.24
   3   1 -29   15.26    4.48
  -3  -1 -29   15.21    4.02
   3  -1  29   20.17    5.10
  -3   1  29   18.28    4.98
   3  -1 -30  101.71   13.40
  -3  -1  30  104.12    9.49
   3   1 -30   99.37    9.39
  -3  -1 -30   88.99   12.46
   3  -1  30   87.57   12.92
  -3   1  30  102.81   11.30
   3  -1 -31   21.88    5.20
  -3  -1  31   21.30    4.72
   3   1  31   20.83    5.75
   3   1 -31   26.33    5.41
   3  -1  31   21.29    4.71
  -3  -1 -31   19.13    4.30
  -3   1  31   24.07    5.81
   3  -1 -32    3.35    2.28
  -3  -1  32    2.36    1.97
   3   1  32    2.08    1.50
   3   1 -32    3.03    2.03
   3  -1  32    3.29    2.30
  -3  -1 -32    3.75    1.75
  -3   1  32    4.19    2.22
   3   1  33    2.51    1.74
   3  -1 -33    0.83    1.01
  -3  -1  33    2.48    1.59
   3  -1  33    2.88    1.83
   3   1 -33    3.49    2.00
  -3   1  33   -1.97    2.45
  -3  -1  34   66.43   18.64
   3  -1 -34   62.98   15.07
   3  -1  34   65.06   15.89
   3   1 -34   74.03   16.83
  -3   1  34   58.15   16.69
  -3  -1  35    2.83    1.88
   3  -1 -35    4.35    2.31
   3  -1  35    1.71    1.36
   3   1 -35    4.75    2.51
  -3   1  35    3.18    1.75
   3  -1 -36   15.88    3.26
  -3  -1  36    9.72    3.04
   3   1 -36   12.73    2.67
  -3   1  36    6.70    3.03
   3  -1 -37    1.88    3.06
  -3  -1  37    0.80    1.55
   3   1 -37    2.39    3.56
  -3   1  37    2.80    4.35
  -3   2   0  110.42    7.96
  -3  -2   0  108.30    8.48
  -3   2   0  104.80    6.89
   3   2   1  164.55   11.09
  -3  -2   1  142.72    9.17
  -3   2  -1  152.71   10.42
  -3   2  -1  143.02    9.25
  -3  -2   1  134.27    9.11
  -3  -2  -1  137.46    9.34
  -3   2   1  155.56   10.36
   3  -2   1  159.26   10.67
   3   2  -1  124.43    8.51
  -3   2   1  152.31   10.36
   3   2   2  320.23   10.25
  -3   2  -2  325.00   11.46
  -3   2  -2  297.30    9.72
  -3  -2   2  305.95   10.87
  -3  -2   2  320.40   10.33
  -3  -2  -2  305.75   11.06
   3  -2   2  302.56   10.46
   3   2  -2  321.46   11.10
  -3   2   2  321.11   11.26
  -3   2   2  320.75   11.14
   3   2   3  228.99    9.02
   3  -2  -3  207.52   13.41
  -3   2  -3  238.71    9.03
  -3  -2   3  222.80   13.97
  -3   2  -3  226.27   14.12
  -3  -2   3  220.67   14.47
   3   2   3  239.34    7.85
  -3  -2  -3  240.63    8.93
   3   2  -3  205.72   13.27
   3  -2   3  240.34    8.70
  -3   2   3  226.51   14.72
  -3   2   3  229.35    8.85
   3   2   4  158.27   10.81
  -3   2  -4  183.97   12.25
  -3  -2   4  173.56   11.23
   3  -2  -4  177.58   11.54
  -3  -2   4  170.24   11.43
  -3   2  -4  172.67   11.01
   3   2   4  187.44   12.01
  -3  -2  -4  180.32   15.24
   3  -2   4  164.93   11.06
  -3   2   4  163.58   11.84
  -3   2   4  175.43   11.81
   3   2   5  140.01   10.77
  -3   2  -5  130.28    8.96
  -3  -2   5  133.32    9.35
  -3   2  -5  132.27    8.51
  -3  -2   5  120.46    7.99
   3   2   5  122.35    7.85
  -3  -2  -5  124.83    8.59
   3  -2   5  121.98    8.35
  -3   2   5  120.21    8.42
  -3   2   5  128.58    8.88
   3   2   6   90.56    6.53
  -3   2  -6  112.93    8.03
  -3  -2   6  120.59   14.29
  -3   2  -6  102.45    6.70
  -3  -2   6  100.36    7.09
   3   2   6   98.10    6.59
  -3  -2  -6   97.74    7.22
   3  -2   6  102.32    7.18
  -3   2   6  103.28   10.19
  -3   2   6   96.07    7.89
   3   2   7  128.24    8.87
   3   2   7  139.12    9.00
  -3   2  -7  130.56    9.03
  -3  -2   7  129.41    9.30
  -3   2  -7  126.55    8.18
  -3  -2   7  124.90    8.29
  -3  -2  -7  129.14    8.90
   3  -2   7  137.66    9.31
   3   2  -7  142.14    9.45
  -3   2   7  120.61    8.04
  -3   2   7  131.04   10.94
   3   2   8  396.20   12.49
  -3  -2   8  359.57   10.73
  -3   2  -8  367.71   11.77
  -3  -2   8  374.58   11.96
  -3   2  -8  358.92   10.24
  -3  -2  -8  368.20   11.58
  -3   2   8  355.70   10.54
   3  -2   8  377.48   11.70
   3   2  -8  408.70   12.20
  -3   2   8  362.76   11.58
   3   2   9  124.91    8.65
   3  -2  -9  145.72   10.31
  -3   2  -9  140.51    9.52
  -3   2  -9  152.77    9.87
  -3  -2   9  148.52   10.09
  -3  -2   9  140.12    9.22
  -3  -2  -9  147.57    9.91
   3   2  -9  148.14   10.45
   3  -2   9  147.20    9.95
  -3   2   9  143.38    9.23
   3   2  10  372.11   11.93
  -3  -2  10  359.01   10.98
  -3   2 -10  382.18   12.88
  -3  -2  10  364.96   11.68
  -3   2 -10  375.42   10.88
  -3  -2 -10  364.57   11.64
  -3   2  10  353.14   11.08
   3  -2  10  372.85   11.73
   3   2 -10  357.77   10.78
  -3   2  10  360.11   11.86
   3   2  11   17.39    3.99
   3   2  11   15.47    3.31
  -3   2 -11   14.17    2.48
  -3  -2  11   17.00    2.75
  -3   2 -11   13.63    2.58
  -3  -2  11   16.14    2.80
  -3  -2 -11   19.13    3.62
   3  -2  11   13.34    4.12
   3   2 -11   15.84    3.49
  -3   2  11   12.97    3.28
  -3   2  11   18.93    2.31
   3   2  12   24.02    5.05
  -3   2 -12   19.05    3.85
  -3  -2  12   24.85    3.43
  -3   2 -12   23.35    1.81
  -3  -2  12   25.98    4.95
  -3  -2 -12   27.34    5.70
  -3   2  12   24.50    2.69
   3  -2  12   22.09    5.85
  -3   2  12   27.57    4.22
   3   2  13  339.14   18.76
  -3   2 -13  323.36   17.84
  -3   2 -13  336.83   17.98
   3  -2 -13  323.10   17.76
  -3  -2  13  338.95   18.80
  -3  -2  13  327.91   18.28
  -3  -2 -13  321.52   18.29
   3  -2  13  327.85   18.17
  -3   2  13  328.24   17.47
  -3   2  13  317.59   17.72
   3   2  14   71.67   12.48
  -3  -2  14   78.55    6.14
  -3   2 -14   69.82   11.01
   3  -2 -14   67.14    7.31
  -3   2 -14   79.03    7.20
  -3  -2  14   83.17   11.54
  -3  -2 -14   81.67    8.01
   3  -2  14   69.74    4.69
   3   2 -14   66.66    3.72
  -3   2  14   75.86    9.01
   3   2  15   59.41   12.14
   3  -2 -15   67.75   13.52
  -3   2 -15   62.53    6.00
  -3  -2  15   70.03   13.26
   3   2 -15   69.66    6.67
  -3  -2 -15   70.06   11.86
   3  -2  15   66.28   13.28
  -3   2  15   79.24   11.38
   3   2  16   23.33    5.08
  -3  -2  16   34.75    6.95
  -3   2 -16   30.41    5.37
   3  -2 -16   28.17    6.10
  -3   2 -16   28.75    3.98
   3   2 -16   45.53   10.98
  -3  -2 -16   23.37    3.48
   3  -2  16   27.81    5.35
   3   2 -16   22.18    4.51
  -3   2  16   27.83    4.69
   3   2  17  143.01   11.41
  -3   2 -17  121.96    6.79
   3  -2 -17  132.83    8.14
  -3  -2  17  131.08    8.00
   3   2 -17  128.24   13.39
   3   2 -17  120.83    6.30
  -3  -2 -17  126.95    8.69
  -3   2  17  137.27   13.58
   3   2  18   70.50   11.15
  -3   2 -18   87.65    9.10
   3  -2 -18   86.92   13.58
  -3   2 -18   76.18    4.63
  -3  -2  18   93.30   16.83
   3   2 -18   81.45    4.77
  -3  -2 -18   91.15    5.18
  -3   2  18   77.30    4.87
   3   2  19  197.76   15.66
   3  -2 -19  213.91   12.82
  -3   2 -19  198.41   10.38
  -3  -2  19  206.51   17.51
   3   2 -19  205.78   11.49
  -3  -2 -19  223.17   15.44
  -3   2  19  213.85   12.00
   3   2  20   43.86    9.15
  -3   2 -20   58.94   10.42
   3   2  20   60.00   10.80
   3  -2 -20   54.55    9.94
  -3   2 -20   56.97    7.53
  -3  -2  20   70.49   12.65
   3   2 -20   71.71   13.87
  -3   2  20   71.32   12.39
   3   2  21  126.94   15.38
  -3   2 -21  152.62   13.02
   3  -2 -21  168.71   14.06
  -3   2 -21  152.99   18.71
   3   2  21  165.86   13.31
  -3  -2  21  163.83   16.17
   3   2 -21  160.74   13.42
  -3  -2 -21  161.39   13.84
  -3   2  21  150.61   22.88
   3   2  22    3.62    1.22
  -3   2 -22    3.78    1.14
   3  -2 -22    9.07    2.80
  -3   2 -22    2.84    0.76
   3   2  22    5.05    1.43
  -3  -2  22    5.52    1.99
   3   2 -22    8.29    2.17
  -3  -2 -22    7.59    6.20
  -3   2  22    7.94    3.54
   3   2  23   16.25    3.78
  -3   2 -23   16.64    3.55
  -3  -2  23   20.62    3.83
   3  -2 -23   18.70    4.49
  -3   2 -23   15.32    4.19
   3   2  23   18.15    4.02
   3   2 -23   17.31    3.54
   3  -2  23   16.76    3.70
  -3  -2 -23   21.62    5.20
  -3   2  23   14.56    4.63
   3   2  24   56.77   10.80
  -3  -2  24   70.18   11.66
   3  -2 -24   65.20   12.34
  -3   2 -24   57.18   11.04
   3   2  24   69.95   13.24
   3   2 -24   59.15   11.45
   3  -2  24   69.79   14.53
  -3  -2 -24   66.52   13.62
  -3   2  24   63.94   10.56
   3   2  25    3.02    1.55
  -3   2 -25    3.33    1.74
  -3  -2  25    3.64    2.00
   3  -2 -25    3.54    1.80
  -3   2 -25    1.82    1.01
   3   2  25    1.59    0.99
   3   2 -25    3.93    2.09
   3  -2  25    3.41    1.37
  -3  -2 -25    4.40    1.92
  -3   2  25    7.23    3.15
   3   2  26   37.15    6.85
  -3   2 -26   36.34    7.64
   3  -2 -26   55.96    8.04
  -3   2 -26   43.87    9.50
   3   2  26   50.67    9.23
  -3  -2  26   52.14    8.44
   3   2 -26   52.57    8.78
  -3  -2 -26   54.14    7.71
  -3   2  26   51.50   12.21
   3   2  27   46.06   11.41
  -3   2 -27   49.70   13.20
   3   2  27   75.53   10.81
   3  -2 -27   75.06   12.03
  -3  -2  27   75.31   11.86
  -3  -2 -27   77.61   13.29
   3   2 -27   80.79   11.45
  -3   2  27   75.19   14.30
  -3   2 -28    9.11    3.69
   3   2  28   15.77    3.89
   3  -2 -28   15.52    3.75
  -3  -2 -28   14.62    3.02
   3   2 -28   20.77    5.47
  -3   2  28   20.17    4.75
   3   2  29   11.37    3.22
   3  -2 -29   12.43    3.61
  -3  -2 -29    8.73    2.38
   3   2 -29   11.38    3.51
  -3   2  29   10.66    4.43
   3   2  30   20.45    5.12
   3  -2 -30   22.38    5.87
  -3  -2  30   25.78    5.84
  -3  -2 -30   20.55    4.81
   3   2 -30   25.63    5.82
  -3   2  30   21.97    6.70
   3   2  31   50.22   13.17
   3  -2 -31   72.09   11.55
  -3  -2  31   64.85   13.07
  -3  -2 -31   67.09   14.41
   3   2 -31   64.67   11.64
  -3   2  31   65.44   15.39
   3  -2 -32    3.14    1.83
  -3  -2  32    2.58    2.23
   3   2 -32    4.57    2.20
  -3  -2 -32    4.23    2.38
   3  -2  32    3.00    1.58
  -3   2  32    6.13    3.47
   3  -2 -33   15.27    4.36
  -3  -2  33   11.44    3.21
   3   2 -33   12.48    3.94
  -3  -2 -33    9.36    3.00
   3  -2  33   14.13    5.02
  -3   2  33    7.34    4.57
  -3  -2  34   11.54    4.40
   3  -2 -34    9.57    3.58
   3  -2  34    8.84    3.32
   3   2 -34   12.11    4.14
  -3   2  34    7.85    3.31
  -3  -2  35   -0.29    2.40
   3  -2 -35    5.37    2.95
   3  -2  35    1.06    1.66
   3   2 -35    3.09    1.86
   3  -2 -36   11.24    2.66
  -3  -2  36    9.15    4.27
   3   2 -36   11.51    4.38
  -3   2  36   11.24    3.07
   3  -2 -37    9.80    2.70
  -3   2  37    9.12    4.41
  -3   3   0  770.49   24.79
   3  -3   0  819.83   25.49
  -3  -3   0  781.84   25.44
   3   3   1  120.56    8.94
  -3  -3   1  131.97    9.34
  -3  -3   1  128.92    8.25
  -3   3  -1  110.18    8.03
   3  -3  -1  109.77    7.18
   3   3  -1  120.49    9.22
  -3  -3  -1  143.77   10.07
   3  -3   1  113.80    7.32
   3  -3   1  137.50    9.39
  -3   3   1  117.94    8.06
  -3  -3   2  528.41   16.50
  -3   3  -2  478.73   16.47
   3  -3  -2  543.72   17.25
  -3  -3   2  515.56   17.31
  -3   3   2  477.99   15.81
  -3  -3  -2  542.05   18.36
   3  -3   2  537.94   17.99
   3   3  -2  516.90   17.32
  -3   3   2  542.00   18.26
   3   3   3  582.87   17.80
  -3  -3   3  567.22   15.84
  -3   3  -3  534.04   15.86
   3  -3  -3  555.36   15.93
  -3  -3   3  560.08   16.99
  -3   3   3  534.40   16.12
  -3  -3  -3  554.86   16.77
   3  -3   3  550.17   16.47
   3   3  -3  542.99   16.23
  -3   3   3  576.17   17.61
   3   3   4   98.18    7.20
  -3  -3   4   87.13    5.72
  -3   3  -4   82.44    8.19
   3  -3  -4   80.82    5.50
  -3  -3   4  107.07   15.00
  -3   3   4   77.30    5.40
  -3  -3  -4   99.77   10.20
   3  -3   4   83.96    6.30
   3   3  -4  102.53    7.21
  -3   3   4  109.84   11.96
   3   3   5  141.62    9.73
  -3  -3   5  142.82    9.17
  -3   3  -5  139.04    9.40
   3  -3  -5  152.96    9.96
  -3  -3   5  152.63   13.48
  -3   3   5  140.25    9.22
   3  -3   5  149.76   10.91
  -3  -3  -5  146.14    9.93
  -3   3   5  145.74    9.89
   3   3   6   59.97   12.16
   3  -3  -6   60.36    4.48
  -3   3  -6   61.44   10.23
  -3  -3   6   61.22    6.26
  -3  -3   6   64.32   10.04
  -3   3   6   49.38    4.71
   3  -3   6   59.92    6.75
   3   3  -6   56.66    4.86
  -3   3   6   64.77    7.53
   3   3   7  182.20    9.21
  -3   3  -7  184.43    9.10
  -3  -3   7  182.86    9.40
   3  -3  -7  178.06   11.55
  -3  -3   7  172.73   11.05
  -3   3   7  176.22   11.38
   3  -3   7  184.09    6.89
  -3  -3  -7  183.83    7.06
  -3   3   7  184.86    9.16
   3   3   8  363.24   11.61
   3   3   8  390.98   10.94
  -3   3  -8  367.50   11.88
  -3  -3   8  364.60   11.71
   3  -3  -8  390.67   12.02
  -3  -3   8  394.08   11.74
  -3  -3  -8  373.17   14.54
   3  -3   8  373.74   11.84
   3   3  -8  382.84   11.74
  -3   3   8  357.56   10.79
  -3   3   8  351.09   11.56
   3   3   9  109.54    8.97
  -3   3  -9   99.41    8.43
  -3  -3   9  119.77   14.64
   3  -3  -9   84.49    5.88
   3   3   9   88.89    5.72
  -3  -3   9  104.39    7.08
   3  -3   9   95.21    7.28
  -3  -3  -9   94.25    6.79
  -3   3   9  119.56   13.18
  -3   3   9   93.20    6.72
   3   3  10  364.40   20.00
  -3  -3  10  372.51   20.14
  -3   3 -10  381.54   20.92
   3  -3 -10  348.11   18.81
   3   3  10  391.56   20.66
  -3  -3  10  374.81   20.54
   3  -3  10  379.45   20.76
  -3  -3 -10  370.93   21.22
   3   3 -10  378.70   21.27
  -3   3  10  367.47   20.22
   3   3  11  170.94   16.73
  -3  -3  11  169.57    9.68
  -3   3 -11  196.07   13.05
   3   3  11  168.66    9.17
  -3  -3  11  169.79   10.09
  -3   3  11  191.46   10.56
   3  -3  11  182.73   10.73
  -3  -3 -11  165.64   10.77
   3   3 -11  177.55   10.00
  -3   3  11  199.44   19.18
   3   3  12    9.90    2.94
  -3  -3  12   10.63    2.40
  -3   3 -12   13.50    2.56
   3   3  12    7.10    1.90
  -3  -3  12   12.48    2.83
  -3   3  12    7.68    1.76
   3  -3  12    9.36    1.92
  -3  -3 -12   10.62    1.86
   3   3 -12   10.74    2.23
  -3   3  12    9.61    1.92
   3   3  13   28.49    6.91
  -3   3 -13   46.36    7.90
   3   3  13   27.85    5.78
  -3  -3  13   41.66    6.52
  -3  -3  13   35.73    6.25
  -3   3  13   30.08    4.34
   3  -3  13   35.02    8.22
  -3  -3 -13   33.20    7.41
  -3   3  13   34.83    5.85
   3   3  14   60.02    6.94
   3   3  14   72.48    6.83
  -3   3 -14   99.02   13.93
  -3  -3  14   79.60   14.11
   3  -3 -14   79.94   12.61
  -3  -3  14   75.25    7.96
  -3  -3 -14   79.24   12.32
   3  -3  14   67.90   11.62
   3   3 -14   72.87    7.00
  -3   3  14   64.48    6.62
  -3   3  14   73.33   10.24
   3   3  15   61.37    7.66
  -3  -3  15   73.54   11.50
  -3   3 -15   75.25   14.71
   3   3  15   57.05    5.69
  -3  -3  15   55.84    5.59
   3  -3  15   65.98   14.08
  -3  -3 -15   77.09   12.96
   3   3 -15   73.95    7.07
  -3   3  15   73.58   10.29
   3   3  16  374.08   26.18
   3   3  16  421.78   21.00
  -3  -3  16  380.36   19.69
  -3  -3  16  386.15   21.55
   3  -3  16  389.00   20.00
   3   3 -16  402.92   20.34
  -3   3  16  370.38   20.82
   3   3  17   75.95   11.69
   3   3  17   89.86    5.24
  -3  -3  17   86.47    7.48
   3  -3  17   89.03   14.45
   3   3 -17   88.01    3.80
  -3  -3 -17  105.12   13.28
  -3   3  17   93.22   10.76
   3   3  18    4.46    1.29
  -3  -3  18    6.11    1.57
   3  -3 -18    3.65    1.38
   3   3  18    3.99    1.22
   3   3 -18    6.51    1.91
   3   3 -18    4.71    1.06
   3  -3  18    6.31    1.82
  -3  -3 -18    5.99    1.82
  -3   3  18    4.28    1.28
   3   3  19   61.27    8.09
  -3   3 -19   74.24    9.70
   3   3  19   93.15   10.80
   3  -3 -19   77.01   14.01
  -3  -3  19   96.61   13.72
   3  -3  19   75.06   16.27
   3   3 -19   82.42   15.27
  -3   3  19   77.65   12.05
   3   3  20  210.22   16.99
  -3   3 -20  230.26   18.66
   3  -3 -20  231.10   18.47
   3   3  20  240.70   18.76
  -3  -3  20  267.22   42.35
   3  -3  20  250.27   21.15
  -3   3  20  238.98   27.45
   3   3  21  345.73   22.95
  -3   3 -21  363.81   23.50
   3  -3 -21  359.70   23.50
  -3  -3  21  378.59   24.24
   3   3  21  391.15   24.42
   3  -3  21  375.41   25.51
  -3  -3 -21  379.97   25.99
  -3   3  21  368.63   24.33
   3   3  22   97.54   17.88
  -3   3 -22  112.63   13.53
   3  -3 -22  125.71   18.68
  -3  -3  22  114.78    9.56
   3   3  22  105.97   22.58
   3   3 -22  115.32    8.41
   3  -3  22  125.87   19.12
  -3  -3 -22  130.79   17.15
   3   3  23    5.27    1.23
  -3   3 -23    7.86    1.75
   3  -3 -23    7.70    1.84
  -3  -3  23    4.97    2.05
   3   3  23    4.61    1.66
   3   3 -23   12.53    2.87
   3  -3  23   10.27    2.26
  -3  -3 -23    7.89    1.81
  -3   3  23    3.79    1.45
   3   3  24   25.93    6.16
   3   3  24   29.23    5.98
   3  -3 -24   35.89    7.95
  -3  -3  24   38.62    8.80
   3  -3  24   29.95    7.04
   3   3 -24   37.03    8.52
  -3   3  24   35.18    8.70
   3   3  25   17.58    5.19
  -3   3 -25   20.51    5.43
   3  -3 -25   25.83    5.72
  -3  -3  25   27.84    6.90
   3   3  25   22.38    5.32
   3   3 -25   28.13    6.97
   3  -3  25   23.62    6.59
  -3  -3 -25   28.09    7.23
  -3   3  25   25.59    5.75
   3   3  26    8.08    2.75
  -3   3 -26    9.65    2.89
   3  -3 -26   14.78    3.67
  -3  -3  26   15.83    4.13
   3   3  26   16.23    4.26
   3   3 -26   15.63    3.47
   3  -3  26   13.65    4.84
  -3  -3 -26   12.85    3.17
  -3   3  26   11.66    3.26
   3   3  27    1.63    1.04
  -3   3 -27    1.89    1.21
   3  -3 -27    5.12    2.53
  -3  -3  27    5.90    1.94
   3   3  27    4.31    1.66
   3   3 -27    4.66    1.33
   3  -3  27    2.94    1.68
  -3  -3 -27    2.00    1.95
  -3   3  27    2.01    2.67
  -3   3 -28   41.30    9.75
   3   3  28   46.30    8.56
   3  -3 -28   54.87   11.12
  -3  -3  28   53.00    9.29
  -3  -3 -28   53.38   14.17
   3   3 -28   56.00    7.50
  -3   3  28   53.36    8.83
  -3  -3  29   39.77   15.57
   3  -3 -29   43.05    8.96
  -3  -3 -29   33.47    7.72
   3   3 -29   49.93    9.02
  -3   3  29   34.96    8.44
  -3  -3  30   53.08   10.70
   3  -3 -30   62.41   10.42
  -3  -3 -30   46.57   11.43
   3   3 -30   61.92    8.93
  -3   3  30   54.75   11.81
  -3  -3  31   19.09    4.24
   3  -3 -31   18.71    4.09
  -3  -3 -31   16.53    4.00
   3   3 -31   22.26    5.30
  -3   3  31   15.70    4.17
  -3  -3  32    3.66    2.33
   3  -3 -32    4.89    2.49
  -3  -3 -32    0.98    1.69
   3   3 -32    2.15    1.46
  -3   3  32    6.55    3.23
  -3  -3  33   26.67   10.03
   3  -3 -33   32.02    7.21
  -3  -3 -33   19.89    9.26
   3   3 -33   27.75    7.60
  -3   3  33   26.10    8.65
  -3  -3  34   43.00   14.21
   3  -3 -34   51.60   14.46
   3  -3  34   46.07   12.66
   3   3 -34   50.47   13.80
  -3   3  34   36.89   13.14
  -3  -3  35   16.22    7.69
   3  -3 -35    2.52    3.81
   3  -3  35    5.88    2.47
   3   3 -35    7.83    3.06
  -3   3  35    3.79    1.70
   3  -3 -36    3.13    4.77
  -3   3  36    0.83    1.73
  -3   4   0  358.18   11.38
   3  -4   0  356.84   10.05
  -3  -4   0  373.41   12.56
   3  -4   0  400.05   12.91
  -3   4  -1  827.27   23.93
   3  -4  -1  855.62   24.12
  -3  -4   1  813.23   26.25
  -3   4   1  860.89   25.26
  -3  -4  -1  864.12   25.92
   3  -4   1  840.37   24.48
  -3  -4   2  868.91   25.57
  -3   4  -2  877.33   25.64
  -3  -4  -2  860.20   25.90
  -3   4   2  860.53   25.10
   3  -4   2  897.44   26.93
   3   4   3   35.75    5.92
  -3  -4   3   23.00    1.95
  -3  -4   3   34.36    4.88
  -3   4  -3   38.71    7.48
   3   4  -3   23.67    5.67
  -3   4   3   33.50    9.75
   3  -4   3   29.70    7.83
  -3  -4  -3   35.32    5.89
  -3   4   3   37.07    4.80
   3   4   4  181.95    9.72
  -3  -4   4  171.10   10.77
  -3  -4   4  175.11   11.90
  -3   4  -4  176.13   11.77
   3   4  -4  158.62   10.65
  -3   4   4  168.10   11.23
   3  -4   4  167.93   11.35
  -3  -4  -4  170.38   11.55
  -3   4   4  178.59   12.06
   3   4   5  316.47   12.16
  -3  -4   5  287.75    8.43
  -3   4  -5  292.51    9.80
   3  -4  -5  286.35    8.77
  -3  -4   5  308.34   12.08
  -3   4   5  291.88    9.49
   3  -4   5  303.09   10.37
  -3  -4  -5  294.91   10.22
  -3   4   5  287.56   10.01
   3   4   6   58.35    9.99
  -3  -4   6   54.93    3.06
  -3   4  -6   57.40    4.30
   3  -4  -6   48.20    8.53
  -3  -4   6   61.21    9.92
  -3   4   6   66.99   13.64
   3  -4   6   66.12    5.20
  -3  -4  -6   66.10    9.63
  -3   4   6   66.20   10.29
   3   4   7   93.73   10.91
  -3  -4   7   99.89   12.90
  -3   4  -7   84.32    5.24
   3  -4  -7   72.50    3.99
  -3  -4   7   83.26    4.28
  -3   4   7   78.11    4.35
   3  -4   7   85.20    9.10
  -3   4   7   81.91   11.49
   3   4   8  222.16   12.64
  -3  -4   8  225.26   13.08
   3  -4  -8  209.08   11.57
  -3  -4   8  216.95   11.85
  -3   4   8  225.27   12.48
   3  -4   8  238.70   13.59
  -3  -4  -8  224.64   13.05
  -3   4   8  223.48   17.02
   3   4   9  137.78    8.87
  -3  -4   9  136.52    7.92
  -3   4  -9  144.40    8.86
   3  -4  -9  130.97    7.58
  -3  -4   9  138.32    8.70
  -3   4   9  132.92    7.90
  -3  -4  -9  140.97   12.17
   3  -4   9  156.65    9.48
   3   4  -9  144.63    8.43
  -3   4   9  157.16   20.10
   3   4  10  233.85   13.25
  -3  -4  10  254.32   14.04
  -3   4 -10  241.90   13.87
   3  -4 -10  250.01   13.91
  -3  -4  10  252.00   15.18
  -3   4  10  241.51   13.23
  -3  -4 -10  253.88   19.05
   3  -4  10  262.72   15.00
   3   4 -10  220.47   13.33
  -3   4  10  246.77   14.33
   3   4  11  101.72   14.44
  -3  -4  11  105.87    5.16
  -3   4 -11  111.15    6.56
   3  -4 -11  100.86    7.05
  -3  -4  11  111.15   10.26
  -3   4  11  103.81    4.80
  -3  -4 -11  121.49   10.78
   3  -4  11  108.93    9.23
   3   4 -11  110.75    6.48
  -3   4  11  109.39    5.92
   3   4  12   92.44    9.62
  -3  -4  12   95.53    4.67
  -3   4 -12  108.39    6.33
   3  -4 -12   91.09    4.36
  -3  -4  12  122.10   15.13
  -3   4  12   97.52    4.57
  -3  -4 -12   97.96    5.56
   3  -4  12  109.38    6.60
   3   4 -12  112.71    5.54
  -3   4  12  119.84   14.74
   3   4  13  400.41   16.59
  -3  -4  13  416.00   17.48
  -3   4 -13  404.37   18.01
  -3  -4  13  418.07   17.53
   3  -4 -13  433.54   17.50
  -3  -4 -13  407.72   18.12
  -3   4  13  398.68   15.61
   3  -4  13  385.78   16.68
   3   4 -13  427.04   17.29
  -3   4  13  403.39   16.88
   3   4  14   -1.53    1.98
  -3   4 -14    2.05    1.09
   3  -4 -14    4.05    1.20
  -3  -4  14    7.27    1.76
  -3  -4  14    2.77    1.24
   3   4  14    2.84    0.77
  -3   4  14    2.79    0.92
   3  -4  14    4.57    2.25
  -3   4  14    8.08    2.66
   3   4  15   58.15   10.04
   3   4  15   57.35    7.46
  -3   4 -15   68.77   12.11
   3  -4 -15   63.13   10.73
  -3  -4  15   70.40    9.42
  -3  -4  15   76.77   10.07
   3  -4  15   64.25   12.12
  -3  -4 -15   66.30   10.86
   3   4 -15   57.86    3.18
  -3   4  15   59.19    7.06
   3   4  16   22.35    4.31
   3  -4 -16   16.48    3.31
  -3  -4  16   20.77    4.20
  -3  -4  16   13.89    2.94
   3   4  16   13.13    2.81
   3   4 -16   17.30    4.11
   3  -4  16   18.81    3.90
  -3   4  16   17.71    4.00
   3   4  17   11.99    3.00
  -3  -4  17   16.35    3.60
  -3   4 -17   18.60    3.74
  -3  -4  17   15.30    3.41
   3   4  17    9.74    2.02
   3  -4  17   11.94    2.72
  -3  -4 -17   15.65    4.19
   3   4 -17   13.31    2.95
  -3   4  17   12.44    2.37
   3   4  18   15.84    3.16
   3   4  18   12.41    2.81
  -3  -4  18   14.13    2.92
   3  -4  18   16.04    3.01
   3   4 -18   12.79    2.68
  -3   4  18   15.62    4.26
   3   4  19  292.30   23.25
  -3  -4  19  334.98   27.40
  -3   4 -19  416.10   32.67
   3   4  19  358.62   27.56
   3  -4  19  312.34   24.98
   3   4 -19  292.88   22.60
  -3   4  19  333.34   26.40
   3   4  20   34.97    5.07
  -3   4 -20   39.76    9.10
  -3  -4  20   37.53    8.19
   3  -4 -20   38.77    7.50
   3   4  20   31.67    6.32
   3  -4  20   41.39    7.44
   3   4 -20   44.60    9.12
  -3   4  20   38.91    5.83
   3   4  21   22.90    3.39
  -3   4 -21   26.92    5.03
   3  -4 -21   27.82    5.63
   3   4  21   22.91    5.50
  -3  -4  21   27.04    5.10
   3   4 -21   28.61    4.61
   3  -4  21   28.58    4.62
  -3  -4 -21   25.64    3.53
  -3   4  21   30.28    4.17
   3   4  22   41.12   10.06
  -3   4 -22   45.59   10.52
  -3  -4  22   50.62    8.45
   3   4  22   47.41   11.35
   3  -4  22   60.67   11.90
   3   4 -22   46.82   10.23
  -3  -4 -22   58.48    9.95
  -3   4  22   60.86    8.97
   3   4  23    2.64    1.26
  -3   4 -23    4.39    1.14
   3   4  23    1.75    0.68
  -3  -4  23    2.86    1.15
   3  -4  23    7.14    1.91
   3   4 -23    1.26    0.88
  -3   4  23    2.42    0.92
   3   4  24   20.95    5.09
  -3  -4  24   32.02    4.64
   3   4  24   19.35    4.69
   3  -4  24   26.03    7.10
   3   4 -24   24.71    5.90
  -3  -4 -24   30.75    6.05
  -3   4  24   30.61    5.35
   3   4  25   30.80    7.74
  -3   4 -25   28.56    6.73
   3  -4 -25   38.22    6.58
  -3  -4  25   36.97    7.97
   3   4 -25   36.73    5.82
  -3  -4 -25   42.47    9.06
   3  -4  25   40.61    6.94
  -3   4  25   41.35    6.49
   3   4  26   35.46    8.46
  -3   4 -26   39.64    7.09
   3  -4 -26   48.59    8.23
  -3  -4  26   50.96    8.69
   3   4 -26   52.39    9.72
  -3  -4 -26   52.80    7.91
   3  -4  26   51.91    8.72
  -3   4  26   48.74    8.28
  -3   4 -27   22.95    5.06
   3  -4 -27   31.51    7.89
  -3  -4  27   25.02    4.77
   3   4 -27   26.63    6.19
  -3  -4 -27   31.71    6.65
   3  -4  27   31.04    6.17
  -3   4  27   28.19    4.33
  -3   4 -28   11.37    4.83
   3  -4 -28   16.35    3.65
  -3  -4  28   16.95    3.75
   3   4 -28   16.50    4.00
  -3  -4 -28   15.44    3.71
   3  -4  28   20.74    4.21
  -3   4  28   13.26    4.42
   3  -4 -29    7.42    3.19
  -3  -4  29    5.49    2.56
   3   4 -29    6.22    2.64
  -3  -4 -29    9.06    3.65
   3  -4  29   11.01    2.82
  -3   4  29   11.23    2.99
   3  -4 -30   25.90    7.14
  -3  -4  30   26.26    7.98
   3   4 -30   30.32    6.30
  -3  -4 -30   24.98    6.89
   3  -4  30   34.59    7.67
  -3   4  30   26.14    6.34
   3  -4 -31    8.03    3.87
  -3  -4  31    9.79    3.76
   3   4 -31    6.86    3.23
  -3  -4 -31   10.06    3.85
   3  -4  31    7.81    3.91
  -3   4  31    6.20    3.54
   3  -4 -32   40.10    9.54
  -3  -4  32   36.83   10.27
   3   4 -32   48.41   10.01
  -3  -4 -32   36.75   11.31
   3  -4  32   42.05   12.20
  -3   4  32   42.83   11.93
   3  -4 -33    2.81    1.93
  -3  -4  33    3.66    2.14
   3   4 -33    3.60    1.94
  -3  -4 -33    4.03    2.51
   3  -4  33    8.12    3.15
  -3   4  33    2.90    2.68
   3  -4 -34   30.38    7.11
  -3  -4  34   19.00    6.88
  -3  -4 -34   19.26    6.26
   3  -4  34   25.69    7.00
  -3   4  34   22.24    7.52
   3  -4 -35    1.83    2.94
   3  -4  35    3.59    5.42
  -3   4  35    3.92    1.99
   3   5   0   -0.60    1.93
  -3   5   0   -1.74    1.72
  -3  -5   0   -0.74    1.71
   3  -5   0    2.27    1.46
   3   5   1   94.21    5.88
   3  -5  -1   92.15    4.50
  -3   5  -1   91.03    5.56
   3  -5  -1   92.14    6.92
  -3  -5   1  102.32   14.04
  -3   5   1   88.61    6.84
  -3  -5  -1   82.84    5.24
   3   5  -1   97.14    8.02
   3  -5   1   84.83    5.35
   3   5   2  418.24   23.33
   3  -5  -2  398.69   21.04
  -3   5  -2  404.83   22.09
  -3  -5   2  378.63   20.90
  -3   5   2  398.73   22.41
   3   5  -2  406.54   23.09
  -3  -5  -2  412.24   24.63
   3  -5   2  411.49   23.04
   3  -5  -3   63.22    3.55
  -3  -5   3   65.90    8.88
  -3   5  -3   70.88   12.39
   3   5  -3   51.05    3.90
  -3   5   3   57.81    3.74
   3  -5   3   71.28    5.39
   3   5   4  129.16   10.31
   3  -5  -4  137.73    8.45
  -3   5  -4  140.13    8.66
  -3  -5   4  142.06    8.81
  -3   5   4  129.55    8.54
   3   5  -4  146.21    9.02
  -3  -5  -4  147.99    9.21
   3  -5   4  150.50    9.20
  -3   5   4  141.03    8.85
   3   5   5  234.84   12.19
  -3  -5   5  216.14    8.57
  -3   5  -5  244.10   10.89
   3  -5  -5  234.92    9.67
  -3  -5   5  234.31   10.83
  -3   5   5  217.75   10.32
  -3  -5  -5  235.82   11.79
   3  -5   5  238.08   10.80
   3   5  -5  251.08   10.93
  -3   5   5  230.36   15.45
   3   5   6  137.88    7.62
  -3  -5   6  146.68    6.19
  -3   5  -6  149.86    7.37
   3  -5  -6  140.22    6.21
  -3  -5   6  145.13    7.65
  -3   5   6  142.98    6.63
   3  -5   6  163.96    8.07
  -3  -5  -6  149.66    7.51
  -3   5   6  162.94    7.90
   3   5   7   85.67   15.22
  -3  -5   7   85.80    7.95
  -3  -5   7   97.58   14.72
  -3   5  -7   98.08    8.23
   3   5  -7   84.39    8.28
  -3   5   7   97.73    4.96
   3  -5   7   97.00    6.38
  -3  -5  -7   97.74   13.98
  -3   5   7  107.88   13.61
   3   5   8   19.14    4.01
  -3  -5   8   27.40    5.39
  -3   5  -8   26.70    4.94
  -3  -5   8   22.09    4.71
  -3   5   8   22.71    4.52
   3  -5   8   22.49    4.73
  -3  -5  -8   28.03    4.44
  -3   5   8   27.20    4.34
   3   5   9  207.07   12.97
  -3  -5   9  184.89    7.74
  -3  -5   9  206.59   19.51
  -3   5  -9  190.39    9.02
   3   5  -9  190.04    9.00
  -3   5   9  192.34    8.52
   3  -5   9  214.61   10.09
  -3  -5  -9  199.72    9.49
  -3   5   9  186.97   10.37
   3   5  10  223.63   12.20
   3  -5 -10  235.89   12.82
  -3   5 -10  254.31   14.26
  -3  -5  10  244.42   12.57
  -3  -5  10  254.60   13.68
  -3   5  10  259.19   13.99
  -3  -5 -10  247.61   13.61
   3   5 -10  270.05   14.13
  -3   5  10  252.26   14.99
   3   5  11  102.58   15.24
   3  -5 -11   82.65    4.12
  -3   5 -11   82.97    5.49
  -3  -5  11   79.86    3.64
  -3  -5  11   98.37   15.03
  -3   5  11   86.53    6.57
  -3  -5 -11  105.19   14.32
   3   5 -11  103.88    5.03
  -3   5  11   96.05   10.28
   3   5  12   82.68    7.24
   3  -5 -12   79.22    4.08
  -3  -5  12   81.48   13.52
  -3   5 -12   87.28   16.41
  -3  -5  12   74.36    4.64
  -3   5  12   73.09    3.91
   3  -5  12   80.14   15.08
   3   5 -12   74.36    4.15
  -3   5  12   81.98   10.91
   3   5  13   12.96    3.79
   3  -5 -13   16.71    4.09
  -3  -5  13   19.79    3.45
  -3   5 -13   18.84    3.59
  -3  -5  13   19.56    3.89
  -3   5  13   12.07    3.08
   3  -5  13   13.08    2.90
   3   5 -13   18.63    3.34
  -3   5  13   19.55    4.24
   3   5  14  119.54    7.34
  -3  -5  14  122.90    6.95
  -3   5 -14  127.86   18.25
   3  -5 -14  125.67   15.34
  -3  -5  14  138.79   16.82
  -3   5  14  124.93    6.78
   3  -5  14  129.60    8.46
  -3  -5 -14  127.13    8.26
  -3   5  14  138.89   13.70
   3   5  15   66.03   12.28
  -3   5 -15   74.21   15.16
   3  -5 -15   68.19   11.99
  -3  -5  15   78.01    9.22
  -3  -5 -15   79.77   14.50
   3  -5  15   83.12   14.44
   3   5  16   35.64    6.87
  -3   5 -16   44.88    6.10
   3  -5 -16   40.71    6.50
  -3  -5  16   46.63    9.15
   3   5 -16   45.50    7.78
  -3  -5 -16   44.18    9.95
   3  -5  16   36.72    7.05
  -3   5  16   43.39    5.33
   3   5  17  189.28   17.11
   3  -5 -17  221.33   17.57
  -3  -5  17  206.29   16.32
   3   5 -17  200.93   16.44
  -3  -5 -17  198.97   16.26
   3  -5  17  228.05   18.82
  -3   5  17  181.09   24.76
   3   5  18  151.39   12.10
  -3  -5  18  157.34   17.08
   3  -5 -18  140.61    9.77
  -3  -5  18  125.44    8.61
   3   5 -18  137.85   11.32
   3  -5  18  150.74   12.17
  -3  -5 -18  152.43   25.19
  -3   5  18  147.63   15.59
   3   5  19  182.41   26.40
   3  -5 -19  200.20   21.04
  -3  -5  19  193.68   22.74
   3   5 -19  179.70   18.42
  -3  -5 -19  197.93   32.34
   3  -5  19  181.63   22.47
  -3   5  19  194.24   26.09
   3   5  20    7.35    1.87
   3  -5 -20    9.02    2.13
  -3   5 -20   11.23    2.43
  -3  -5  20    9.77    1.95
   3   5 -20    7.44    1.70
   3  -5  20    6.82    1.81
   3   5 -20   18.01    4.69
  -3   5  20    8.98    1.97
   3   5  21    2.35    1.08
  -3   5 -21    7.21    1.98
   3  -5 -21    3.59    2.16
  -3  -5  21    7.37    2.91
   3   5 -21    7.91    2.10
  -3  -5 -21    9.48    3.39
   3  -5  21    5.98    1.90
  -3   5  21    5.32    1.62
   3   5  22   62.47   12.96
  -3   5 -22   95.52   17.36
   3  -5 -22   66.97   10.46
  -3  -5  22   74.24   10.90
   3   5 -22   72.77   10.29
  -3  -5 -22   82.93   12.15
   3  -5  22   78.91   14.84
  -3   5  22   68.91   11.95
   3   5  23    7.86    2.44
  -3   5 -23    9.69    2.65
   3  -5 -23    8.80    2.89
  -3  -5  23    9.98    2.63
   3   5 -23   12.81    3.47
  -3  -5 -23    9.58    2.68
   3  -5  23   11.84    2.98
   3   5  24    3.15    1.27
  -3   5 -24    2.57    1.23
  -3  -5  24    2.46    1.02
  -3  -5 -24    3.52    1.96
   3  -5  24    3.54    1.40
   3   5 -24    0.55    1.14
  -3   5  24    2.58    1.96
   3   5  25   32.40    6.12
  -3  -5  25   35.80    7.24
  -3  -5 -25   36.85    6.84
   3  -5  25   47.90    7.44
   3   5 -25   39.48    8.41
  -3   5  25   35.95    5.37
  -3   5 -26    3.63    1.76
   3  -5 -26    7.59    2.81
  -3  -5  26    6.82    2.71
   3   5 -26    6.64    2.69
  -3  -5 -26    8.55    3.41
   3  -5  26    7.90    2.63
  -3   5  26    8.84    3.69
  -3   5 -27   20.74    6.73
   3  -5 -27   24.31    5.94
  -3  -5  27   27.51    6.91
   3   5 -27   30.44    5.69
  -3  -5 -27   29.19    5.31
   3  -5  27   30.85    7.55
  -3   5  27   29.25    6.64
  -3   5 -28   14.09    4.40
  -3  -5  28   22.23    5.21
  -3  -5 -28   19.76    5.48
   3  -5  28   25.15    4.96
   3   5 -28   26.76    5.08
  -3   5  28   20.50    5.15
  -3  -5  29    0.61    1.13
  -3  -5 -29    4.05    3.15
   3  -5  29    7.82    3.62
   3   5 -29    3.06    1.59
  -3   5  29    0.88    1.70
  -3  -5  30   75.67   22.20
  -3  -5 -30   84.10   16.81
   3  -5  30   96.98   23.37
   3   5 -30   95.35   18.53
  -3   5  30   76.07   20.85
  -3  -5  31   46.83   14.41
  -3  -5 -31   43.88   12.60
   3  -5  31   76.63   15.96
   3   5 -31   61.13   14.59
  -3   5  31   53.25   13.77
   3  -5 -32   18.47    6.87
   3   5 -32   22.70    8.10
  -3  -5 -32   12.72    4.89
   3  -5  32   17.26    6.25
  -3   5  32   10.96    4.46
   3  -5 -33    4.71    2.40
  -3  -5 -33    0.73    2.28
   3  -5  33    1.77    2.91
  -3   5  33    5.77    2.72
   3  -5 -34   42.48   10.10
   3  -5  34   36.52    9.59
  -3   5  34   34.29   11.28
   3   6   0  150.73    9.28
  -3   6   0  143.13    9.10
  -3   6  -1  434.37   22.11
   3   6  -1  459.32   24.82
  -3   6   1  413.68   21.08
  -3  -6  -1  466.42   24.24
   3   6   2  639.42   31.92
  -3  -6   2  666.55   34.80
  -3   6  -2  656.47   33.23
   3   6  -2  656.04   33.37
  -3  -6  -2  670.39   33.77
  -3   6   2  670.41   33.36
   3   6   3   86.73    9.09
   3  -6  -3   72.73    4.18
  -3   6  -3   86.79   20.94
  -3  -6   3   80.53    9.53
  -3   6   3   76.51    9.32
   3   6  -3   73.99    5.05
  -3  -6  -3   81.03   12.20
   3   6   4   69.42   12.28
   3  -6  -4   69.09    4.67
  -3   6  -4   77.52   14.97
  -3  -6   4   72.24    9.55
  -3   6   4   78.18    6.95
   3   6  -4   72.43    4.44
  -3  -6  -4   76.40    8.95
   3  -6  -5   28.91    5.80
  -3   6  -5   42.11    5.75
   3  -6  -5   85.94   23.18
  -3  -6   5   34.43    6.22
  -3   6   5   40.16   10.50
  -3  -6  -5   36.07    5.30
   3   6  -5   38.26    6.23
  -3   6  -6  472.28   24.09
   3  -6  -6  465.66   23.09
  -3  -6   6  453.56   23.71
  -3   6   6  475.11   24.51
  -3  -6  -6  474.23   24.38
   3  -6   6  470.89   24.07
  -3   6   6  483.19   24.76
   3   6   7  307.90   16.20
  -3   6  -7  313.14   16.65
   3  -6  -7  327.30   16.54
  -3  -6   7  337.45   17.80
  -3   6   7  306.22   15.79
  -3  -6  -7  326.34   17.94
   3  -6   7  331.40   17.54
  -3   6   7  328.47   17.93
   3   6   8   39.75    5.86
  -3  -6   8   46.19    7.24
  -3   6  -8   49.82   10.01
   3  -6  -8   34.22    9.21
  -3  -6   8   32.81    5.53
  -3   6   8   46.52    8.12
   3  -6   8   50.88    9.37
  -3   6   8   49.90    8.74
   3   6   9   63.77   13.37
  -3   6  -9   75.53   10.57
   3  -6  -9   72.33   14.31
  -3  -6   9   67.53    7.67
  -3   6   9   73.34    9.49
  -3  -6  -9   88.75   13.29
  -3   6   9   80.83   12.53
   3   6  10  349.39   19.09
   3  -6 -10  323.69   16.74
  -3   6 -10  360.73   18.87
  -3  -6  10  311.25   15.90
  -3   6  10  346.95   17.53
   3   6 -10  335.80   17.35
   3  -6  10  364.95   22.71
  -3   6  10  329.52   19.96
   3   6  11  337.17   17.87
   3  -6 -11  355.53   18.00
  -3   6 -11  367.24   19.48
  -3  -6  11  343.25   17.17
  -3   6  11  352.77   18.01
   3   6 -11  405.05   20.59
   3  -6  11  403.25   20.95
  -3   6  11  369.21   19.37
   3   6  12  102.40   13.23
  -3  -6  12  104.42   14.69
  -3   6 -12   93.15   10.04
  -3  -6  12   88.31   12.01
   3   6 -12   97.19   12.05
  -3  -6 -12  111.64   18.88
  -3   6  12   84.76    7.29
  -3   6  12   96.24   10.45
   3   6  13   53.77   12.68
  -3  -6  13   60.84    9.96
  -3   6 -13   64.54   13.19
   3   6 -13   61.02   11.13
   3  -6  13   56.58   12.52
  -3   6  13   54.54    7.83
  -3   6  13   61.40    8.70
   3   6  14   71.86    7.06
  -3   6 -14   85.60    9.12
  -3  -6  14   80.89    6.91
   3   6 -14   85.59    7.45
  -3   6  14   83.69    9.67
  -3  -6 -14   90.14   12.45
   3  -6  14   90.79   16.17
  -3   6  14   87.76   12.37
   3   6  15  145.99   10.89
  -3   6 -15  147.11   15.30
   3  -6 -15  142.34    9.93
  -3  -6  15  137.74   13.05
  -3   6  15  131.74   13.34
  -3  -6 -15  136.66   10.99
   3  -6  15  155.78   11.05
  -3   6  15  136.77   13.64
   3   6  16    6.50    3.34
  -3  -6  16   15.61    2.67
  -3   6 -16   13.43    2.41
   3  -6 -16   15.25    4.06
  -3  -6  16   12.69    2.52
   3   6 -16    6.39    1.74
   3  -6  16   12.26    2.77
   3   6  17   51.60   10.46
   3  -6 -17   67.88    7.59
  -3  -6  17   57.11    8.92
  -3  -6  17   62.85    9.71
   3   6 -17   47.20   10.35
   3  -6  17   52.07    8.33
  -3   6  17   54.69    7.91
   3   6  18   84.38    5.88
  -3  -6  18   82.41   12.96
  -3   6 -18   76.81    4.90
   3  -6 -18   81.79   12.43
  -3  -6  18   75.67    4.63
   3   6 -18   68.70    8.51
   3  -6  18   78.84   13.48
  -3   6  18   76.97    6.78
   3   6  19   29.75    5.75
  -3  -6  19   35.88    8.06
   3  -6 -19   30.94    6.38
  -3  -6  19   35.37    8.21
   3   6 -19   31.59    6.08
   3  -6  19   37.09    9.73
  -3  -6 -19   36.53    8.00
  -3   6  19   32.84    5.66
   3   6  20   25.41    5.39
  -3   6 -20   32.44    5.56
   3  -6 -20   29.30    5.79
  -3  -6  20   27.15    6.61
   3   6 -20   23.85    8.10
  -3  -6 -20   32.78    6.18
   3  -6  20   34.80    7.07
  -3   6  20   34.86    4.97
   3   6  21   79.31    9.14
  -3   6 -21   71.80   16.69
   3  -6 -21   69.36   10.85
  -3  -6  21   74.54   13.59
  -3  -6 -21   78.77   14.83
   3  -6  21   88.57   14.60
  -3   6  21   79.94   11.31
   3   6  22   59.20   10.16
  -3   6 -22   73.88   13.34
   3  -6 -22   67.89   12.95
  -3  -6  22   70.13   10.70
  -3   6  22   76.34   14.44
   3   6  23   47.44   11.35
  -3   6 -23   62.91   13.98
   3  -6 -23   61.92   12.86
  -3  -6  23   58.54   11.37
  -3  -6 -23   67.88   11.20
   3  -6  23   65.10   11.39
  -3   6  23   58.44    8.24
   3   6  24   12.45    2.55
  -3   6 -24   15.73    4.54
   3  -6 -24   12.24    4.87
  -3  -6  24   10.51    3.69
   3   6 -24   11.59    4.06
  -3  -6 -24   15.75    3.16
   3  -6  24   19.32    3.71
  -3   6  24   11.17    4.73
   3  -6 -25   94.58   11.22
  -3  -6  25   83.70    7.28
   3   6 -25   79.44   11.32
  -3  -6 -25   88.52   15.10
   3  -6  25  100.73   13.92
  -3   6  25   75.81   10.74
  -3   6 -26    1.69    1.74
   3  -6 -26   -1.75    2.53
  -3  -6  26   -1.10    1.96
   3   6 -26    0.08    0.85
  -3  -6 -26    1.88    1.21
   3  -6  26    3.16    2.06
  -3   6  26   -2.18    2.26
  -3   6 -27   39.09   11.47
   3  -6 -27   47.55   12.66
  -3  -6  27   40.06   10.39
   3   6 -27   50.92    9.90
  -3  -6 -27   49.86   13.40
   3  -6  27   51.43   10.00
   3  -6 -28   19.50    6.12
  -3  -6  28   19.30    6.33
   3   6 -28   26.57    7.12
  -3  -6 -28   25.27    6.94
   3  -6  28   26.81    7.50
   3  -6 -29   19.79    6.36
   3   6 -29   24.60    7.11
  -3  -6 -29   18.38    7.39
   3  -6  29   25.27    7.54
   3  -6 -30   12.62    4.40
  -3  -6 -30   10.68    4.23
   3  -6  30   12.65    4.44
  -3  -6 -31   11.07    3.92
   3  -6  31   19.85    7.10
  -3   6  31    7.47    3.60
  -3  -6 -32    3.33    4.98
   3  -6  32    3.15    4.81
  -3   6  32    4.53    2.28
   3  -6  33   16.10    4.55
   3   7   0   61.21    7.59
  -3   7   0   64.57   12.66
  -3  -7   0   62.65   11.18
   3   7   1   22.57    4.89
  -3   7  -1   22.96    6.97
   3  -7  -1   21.66    4.92
  -3  -7   1   20.77    3.41
   3   7  -1   21.84    4.42
  -3  -7  -1   22.97    5.04
  -3   7   1   20.82    4.05
   3   7   2   22.74    5.12
  -3  -7   2   27.68    5.91
  -3   7  -2   25.71    5.43
   3  -7  -2   24.85    6.41
   3   7  -2   23.97    5.32
  -3  -7  -2   25.05    4.78
  -3   7   2   29.14    8.64
   3   7   3   14.54    3.01
  -3  -7   3   16.90    3.30
  -3   7  -3   15.60    3.59
   3  -7  -3   17.09    3.02
  -3  -7  -3   19.00    3.83
   3   7  -3   18.62    4.42
   3   7   4  182.59   12.22
   3  -7  -4  217.21   12.14
  -3   7  -4  185.81   10.84
  -3   7   4  201.95   11.57
   3   7  -4  201.79   11.19
   3   7   5  194.65   16.65
  -3   7  -5  209.56   23.43
  -3   7   5  174.14   15.03
   3   7   6   78.23    7.69
   3  -7  -6   78.93    6.57
  -3   7  -6   75.42   15.39
  -3  -7   6   80.31   15.03
  -3   7   6   77.22    6.74
   3   7  -6   86.55   11.92
  -3  -7  -6   93.89   15.30
   3  -7   6   93.00   11.01
   3   7   7  139.02   11.63
  -3   7  -7  131.34   11.29
   3  -7  -7  134.33   11.08
  -3  -7   7  140.16   18.22
  -3   7   7  137.48   12.83
  -3  -7  -7  148.51   12.75
   3   7   8  148.87   14.13
   3  -7  -8  178.79   15.64
  -3   7  -8  180.70   20.17
  -3   7   8  161.46   13.03
   3   7  -8  156.77   13.01
  -3  -7  -8  186.03   26.85
   3  -7   8  178.10   16.68
   3   7   9  221.90   17.88
  -3   7  -9  220.10   22.24
   3  -7  -9  218.06   17.16
  -3   7   9  200.15   15.90
  -3  -7  -9  223.58   30.36
   3  -7   9  212.21   17.19
   3   7  10   48.57    9.11
   3  -7 -10   53.19    6.94
  -3   7 -10   56.34   10.89
  -3   7  10   50.91   10.16
   3   7 -10   48.26    8.57
   3  -7  10   56.64    9.59
  -3   7  10   54.62    7.92
   3   7  11   12.34    2.66
   3  -7 -11   14.74    3.36
  -3   7 -11   21.14    4.83
  -3  -7  11   20.15    4.65
  -3   7  11   19.48    4.13
   3   7 -11   20.01    4.95
  -3  -7 -11   20.52    4.24
   3  -7  11   24.27    4.99
  -3   7  11   17.00    3.93
   3   7  12   15.71    3.08
  -3  -7  12   14.53    3.12
  -3   7 -12   13.33    2.65
   3  -7 -12   15.01    3.21
  -3  -7  12   17.75    3.30
  -3   7  12   13.10    2.56
  -3  -7 -12   18.64    2.84
   3  -7  12   16.54    3.34
   3   7 -12   16.28    3.22
  -3   7  12   14.48    2.57
   3   7  13   16.16    3.74
  -3  -7  13   13.78    2.93
  -3   7 -13   19.10    4.00
   3  -7 -13   12.29    2.34
  -3  -7  13   15.89    3.27
  -3   7  13   13.50    2.40
  -3  -7 -13   18.04    4.31
   3  -7  13   13.21    2.62
   3   7 -13   13.80    3.23
  -3   7  13   18.44    3.45
   3   7  14    3.00    1.48
   3  -7 -14    1.12    1.00
  -3  -7  14    2.31    1.03
  -3   7 -14    4.20    1.63
  -3  -7  14    2.68    1.19
  -3   7  14    2.15    0.63
   3  -7  14    4.68    1.59
   3   7 -14    3.00    0.97
  -3   7  14    6.35    1.41
   3   7  15   79.49    9.18
  -3   7 -15   75.12   11.03
   3  -7 -15   67.33   11.99
  -3  -7  15   71.13   11.24
  -3  -7  15   80.84    9.21
   3  -7  15   95.42   15.13
  -3  -7 -15   82.99   12.94
   3   7  16   17.93    3.65
  -3   7 -16   21.64    4.47
   3  -7 -16   18.35    4.46
  -3  -7  16   19.24    3.79
  -3  -7  16   23.19    4.18
   3  -7  16   22.77    4.85
  -3  -7 -16   20.69    4.72
   3   7  17    3.08    2.57
  -3  -7  17    5.02    1.27
  -3   7 -17    6.32    2.07
   3  -7 -17    4.33    1.22
  -3  -7  17    3.01    1.98
   3   7 -17    3.96    1.31
   3  -7  17    5.76    1.72
   3   7  18   51.63    7.62
  -3  -7  18   49.01    7.58
  -3  -7  18   53.43    8.88
   3   7 -18   41.57    8.14
   3  -7  18   59.23    9.15
  -3  -7 -18   59.97    9.51
   3   7  19   30.13    6.16
  -3  -7  19   34.26    7.64
  -3  -7  19   44.25    8.23
   3   7 -19   30.80    8.27
   3  -7  19   44.07    7.57
  -3  -7 -19   41.27    6.61
   3   7  20    4.31    1.82
  -3  -7  20    8.61    2.48
  -3   7 -20    5.13    1.93
  -3  -7  20    7.05    2.00
   3   7 -20    7.87    2.90
   3  -7  20   10.76    3.44
  -3  -7 -20   11.28    3.78
   3   7  21   80.92   14.04
  -3   7 -21   90.30   15.81
  -3  -7  21  102.86    9.05
   3  -7  21  112.04   16.06
   3   7  22   50.08   10.04
  -3   7 -22   61.49   12.91
   3  -7 -22   61.68   12.92
  -3  -7  22   60.31   10.93
  -3  -7 -22   72.60   10.25
   3  -7  22   72.89   12.16
  -3   7  22   61.17   12.35
   3   7  23    9.53    2.52
  -3   7 -23   16.91    4.48
   3  -7 -23   11.16    3.31
  -3  -7  23   10.25    2.75
  -3  -7 -23   19.07    4.22
   3  -7  23   16.89    4.25
  -3   7  23   16.33    3.82
  -3   7 -24    4.35    2.27
   3  -7 -24   11.47    3.22
   3   7 -24    7.38    3.38
  -3  -7 -24   14.02    3.25
   3  -7  24   11.95    3.29
  -3   7  24    7.76    3.40
   3  -7 -25   20.86    6.54
   3   7 -25   15.98    4.99
  -3  -7 -25   25.50    5.91
   3  -7  25   24.01    5.54
  -3   7 -26    5.09    2.86
   3  -7 -26    2.52    1.63
   3   7 -26    2.56    1.81
  -3  -7 -26    2.65    1.46
   3  -7  26    6.78    3.36
   3  -7 -27    2.28    1.70
   3   7 -27    1.22    1.18
  -3  -7 -27    3.74    2.07
   3  -7  27    2.86    1.76
   3  -7 -28   -0.04    1.88
  -3  -7 -28   -0.74    2.86
   3  -7  28    5.79    8.46
  -3   7  28    4.21    2.78
   3  -7 -29   44.32   17.08
  -3  -7 -29   50.66   14.72
   3  -7  29   70.79   20.87
  -3   7  29   43.12   13.56
  -3  -7 -30   44.89   14.38
   3  -7  30   63.94   15.54
  -3   7  30   38.61   11.47
  -3  -7 -31    5.80    2.75
   3  -7  31   16.27    3.27
   3   8   0  130.67   11.74
  -3   8   0  129.44   11.23
   3   8   1  135.49   13.23
  -3  -8   1  145.68   19.87
  -3   8  -1  147.24   10.51
  -3   8   1  148.12   10.55
   3   8  -1  152.85   11.54
   3   8   2   63.76   11.16
  -3   8  -2   87.39    9.65
  -3   8   2   81.01   15.60
   3   8   3   92.05   18.37
   3  -8  -3  104.02   20.08
  -3   8  -3   93.20   17.77
   3   8  -3   86.06   10.93
  -3  -8  -3  100.01   20.32
  -3   8   3  101.94   20.23
   3   8   4   58.13   11.35
  -3   8  -4   61.87   11.04
   3  -8  -4   83.12   14.39
  -3   8   4   66.63   12.81
   3   8   5   95.22   15.98
  -3  -8   5   83.65   17.77
   3  -8  -5   97.45   18.71
  -3   8  -5   80.41   16.60
   3   8  -5   90.24   17.36
  -3   8   5   87.03   16.44
   3  -8   5   97.97   18.07
   3   8   6   52.11    9.27
  -3  -8   6   51.96    8.55
  -3   8  -6   48.49    9.32
   3   8  -6   57.73   10.91
  -3  -8  -6   61.43    9.02
  -3   8   6   48.52    9.81
   3  -8   6   56.25   11.88
   3   8   7  222.06   25.12
  -3  -8   7  227.10   23.49
  -3   8  -7  210.22   25.57
  -3  -8  -7  214.69   22.54
  -3   8   7  200.20   21.88
   3  -8   7  214.07   22.26
   3   8   8   94.74   14.50
  -3  -8   8  102.99   20.51
  -3   8  -8  103.02   20.20
  -3  -8  -8  100.74   15.98
  -3   8   8  102.19   21.18
   3  -8   8  119.66   17.45
   3   8   9  169.07    8.35
  -3  -8   9  152.76   19.73
  -3   8  -9  157.76   23.13
  -3  -8  -9  163.80   20.11
  -3   8   9  155.07    5.21
   3  -8   9  185.03    6.74
   3   8  10  171.97    5.76
  -3  -8  10  211.52   14.04
  -3   8 -10  201.15   21.40
   3  -8 -10  201.59    5.64
  -3   8  10  196.03    6.09
   3   8  11  136.97   18.33
  -3   8 -11  140.72   12.28
   3  -8 -11   96.76   17.11
  -3   8  11  118.03   17.35
  -3   8  11  119.62   11.84
   3   8  12   11.89    3.85
   3  -8 -12   13.60    5.58
  -3  -8  12   23.95    6.59
  -3   8 -12   18.33    5.69
   3   8 -12   16.32    4.71
  -3   8  12   13.99    3.96
  -3   8  12   23.82    5.31
   3   8  13   59.33   11.91
  -3   8 -13   75.42   16.33
  -3  -8  13   62.51   14.74
  -3   8  13   64.49    7.81
   3  -8  13   76.53   13.19
   3   8  14  132.13   18.63
  -3   8 -14  146.00   15.87
   3  -8 -14  127.42   15.95
  -3  -8  14  138.52   18.51
   3   8 -14  145.25   14.39
  -3  -8 -14  141.90   26.63
   3  -8  14  147.25   15.77
   3   8  15    1.30    0.83
  -3  -8  15    1.67    1.52
  -3   8 -15   -2.01    2.65
   3  -8 -15    0.42    0.67
   3   8 -15    4.63    2.00
   3  -8  15    5.81    2.11
   3   8  16   64.30   11.77
  -3   8 -16  188.19   55.27
   3  -8 -16   57.13   16.05
  -3  -8  16   82.11   12.85
   3  -8  16   96.88   16.52
   3   8  17   43.25    9.76
  -3   8 -17   51.11   11.32
   3  -8 -17   45.32   10.50
  -3  -8  17   52.07   15.86
   3   8 -17   47.23    9.74
  -3  -8 -17   56.35   12.70
   3  -8  17   62.40   10.28
   3   8  18   41.58    9.18
   3  -8 -18   42.05   12.06
   3   8 -18   45.53    8.10
  -3  -8 -18   59.77   10.73
   3  -8  18   61.67    8.35
   3   8  19    4.75    1.95
  -3   8 -19    8.66    3.19
   3  -8 -19    7.52    3.19
   3   8 -19    7.35    3.21
  -3  -8 -19    9.50    3.40
   3   8  20   28.98   11.89
   3  -8 -20   33.10   14.66
  -3  -8  20   37.93    7.99
  -3  -8 -20   43.95    9.29
  -3   8  20   36.06    7.23
   3   8  21   18.60    5.27
  -3   8 -21   19.36    4.69
   3  -8 -21   20.69    5.89
  -3  -8 -21   24.76    5.72
   3  -8  21   33.42   14.19
  -3   8  21   22.70    5.76
  -3   8 -22   42.10    7.55
   3  -8 -22   32.95   10.03
  -3  -8 -22   32.42    9.43
   3  -8  22   37.54    8.23
  -3   8  22   29.55    9.05
  -3   8 -23    6.29    2.97
   3  -8 -23    3.16    1.89
   3   8 -23    8.21    4.27
  -3  -8 -23    9.28    4.66
   3  -8  23    9.58    4.34
  -3   8  23    9.39    4.54
  -3   8 -24   -0.51    2.03
   3  -8 -24   -2.22    1.89
  -3  -8 -24    2.50    1.72
   3  -8  24    3.92    2.68
  -3   8  24    2.04    2.38
  -3   8 -25    7.87    3.39
  -3  -8 -25    8.52    3.59
   3  -8  25    8.38    3.43
  -3   8  25    7.08    2.81
  -3  -8 -26   12.26    4.84
   3  -8  26   23.17    8.31
  -3   8  26   12.03    5.14
   3  -8  27    3.27    4.93
  -3   8  27    1.28    1.97
  -3  -8 -28    3.56    5.55
   3  -8  28    2.83    4.52
  -3  -8 -29   25.36    9.31
   3  -8  29   37.97    8.90
   3   9   0    6.20    2.39
  -3   9   0    6.58    2.10
  -3  -9   0    8.00    3.54
   3   9   1    0.76    1.09
  -3   9  -1    1.09    1.48
   3   9  -1    2.84    1.52
  -3   9   1   -0.14    2.44
  -3  -9  -1    3.29    1.42
   3   9   2   91.21   15.66
  -3   9  -2   99.75   18.44
  -3   9   2  109.95   20.00
   3   9   3   57.86    9.43
  -3   9  -3   56.48   12.87
  -3  -9   3   54.13    9.68
  -3   9   3   69.69    8.03
   3   9   4   23.83    5.32
  -3  -9   4   12.58    3.43
  -3   9  -4   18.52    4.64
  -3   9   4   17.09    5.03
   3   9  -4   13.71    3.49
   3   9   5   52.58    8.23
  -3  -9   5   44.52   10.41
  -3   9  -5   49.84    9.96
   3  -9  -5   64.48   10.55
   3   9  -5   48.95    9.15
  -3  -9  -5   45.25    8.92
  -3   9   5   49.87    6.92
   3  -9   5   65.71   11.25
   3   9   6   16.29    3.71
  -3  -9   6   14.47    3.98
  -3   9  -6   18.24    5.23
   3   9  -6   19.01    5.02
  -3  -9  -6   17.61    4.43
  -3   9   6   14.90    3.66
   3  -9   6   14.97    4.47
   3   9   7   26.44    5.17
  -3   9  -7   28.95    5.81
   3   9  -7   25.99    5.82
  -3   9   7   29.19    8.66
   3  -9   7   36.89    7.89
   3   9   8   11.61    3.85
  -3   9  -8   11.54    3.45
  -3   9   8   10.88    2.85
   3  -9   8   22.26    4.48
   3   9   9   83.58   14.98
   3  -9  -9  107.69   18.35
  -3   9  -9   75.30   16.67
  -3   9   9   78.55   14.93
   3   9  -9   76.17   12.04
   3  -9   9   96.35   11.11
   3   9  10    4.33    1.85
  -3  -9  10    1.87    1.04
  -3   9 -10    3.19    2.54
   3  -9 -10    0.73    1.48
  -3  -9 -10    7.75    2.81
  -3   9  10    4.15    1.38
   3  -9  10   11.78    2.90
   3   9  11    3.75    1.69
  -3  -9  11    9.56    2.71
   3  -9 -11   20.50    6.74
  -3   9 -11    5.31    1.59
   3   9 -11    7.30    2.11
  -3   9  11    7.01    3.08
   3  -9  11    9.23    2.80
   3   9  12    1.22    1.18
  -3  -9  12   -0.27    1.55
  -3   9 -12   -0.16    2.13
   3  -9 -12    0.44    5.33
  -3  -9 -12    2.22    0.89
   3   9 -12   -0.76    1.91
   3  -9  12    3.93    1.41
   3   9  13   10.12    3.42
  -3   9 -13    8.43    2.45
   3   9 -13   12.71    3.46
   3  -9  13   13.62    3.87
   3   9  14   51.92    9.76
  -3   9 -14   60.03   11.18
   3   9 -14   41.63    9.02
   3  -9  14   60.55    9.26
  -3   9  14   48.45    6.97
   3   9  15   48.68    9.33
  -3   9 -15   55.31   10.01
  -3  -9  15   50.93    9.49
  -3   9  15   53.03   11.39
   3   9  16   39.67    8.96
  -3   9 -16   46.40   11.18
  -3  -9  16   48.63   10.61
  -3  -9 -16   51.83   12.56
  -3   9  16   48.00    9.54
   3   9  17   30.42    9.00
  -3  -9  17   30.92    7.04
  -3   9 -17   43.08   10.66
  -3  -9 -17   39.84    8.99
   3   9 -17   36.34   10.90
   3  -9  17   46.94    7.75
   3   9  18   18.36    4.78
  -3  -9  18   23.53    6.28
   3   9 -18   17.99    7.09
   3  -9  18   27.82    7.00
   3   9  19   80.25   14.44
  -3  -9  19   72.56   19.01
  -3  -9 -19   76.21   19.87
   3  -9  19  101.49   24.05
   3   9  20    1.30    1.13
  -3  -9 -20    3.51    3.10
  -3   9 -21   16.34    7.00
  -3   9  21   16.65    5.18
  -3   9 -22   41.11   15.22
  -3  -9 -22   40.94   13.15
   3  -9  22   56.84   15.51
  -3   9  22   36.22   11.43
  -3   9 -23   14.65    7.03
  -3  -9 -23   18.66    7.53
   3  -9  23   23.49    9.00
  -3   9  23   13.78   20.15
  -3  -9 -24   20.13    5.44
   3  -9  24   32.02    7.77
  -3  -9 -25    0.70    1.84
   3  -9  25    7.54    3.06
  -3  -9 -26   10.16    3.37
   3  -9  26   10.22    2.30
   3  10   0   31.05    8.83
  -3  10   0   25.38    8.16
   3  10   1   27.64    4.83
  -3  10  -1   32.61    5.67
   3  10  -1   38.16    7.91
  -3  10   1   26.69    5.52
  -3 -10  -1   31.25    6.76
   3  10   2   44.36    7.79
  -3  10  -2   40.70    8.83
   3  10  -2   37.42    8.97
  -3  10   2   40.89    8.83
  -3 -10  -2   33.32    6.63
   3  10   3   35.00    9.09
  -3  10  -3   39.77   17.33
   3  10  -3   34.81    7.45
  -3  10   3   42.91    6.79
  -3 -10  -3   33.03    7.13
   3 -10   3   49.59    8.42
   3  10   4   10.54    3.91
  -3 -10   4   14.28    4.00
  -3  10  -4    9.65    3.74
   3  10  -4   11.83    4.38
  -3 -10  -4    9.18    4.15
  -3  10   4   12.62    2.78
   3  10   5    4.10    2.06
  -3 -10   5    1.22    1.14
  -3  10  -5    0.42    2.28
  -3  10   5    1.39    1.10
   3  10  -5    2.67    1.57
   3 -10   5    0.87    0.75
   3  10   6  118.09   24.54
  -3  10  -6  108.61   21.15
   3  10  -6  108.59   18.55
  -3  10   6  117.44    7.65
   3 -10   6  131.73   17.77
   3  10   7   53.73   10.36
  -3  10  -7   54.36    9.87
   3  10  -7   47.62    9.69
  -3  10   7   51.68   10.09
  -3 -10  -7   58.04    5.37
   3 -10   7   69.31    8.87
   3  10   8   21.74    5.67
  -3  10  -8   18.79    4.78
  -3 -10   8   18.50    5.95
  -3  10   8   19.68    4.42
   3 -10   8   31.04    6.34
   3  10   9   65.43   16.64
  -3  10  -9   78.39   22.73
  -3  10   9   69.42   16.75
   3 -10   9  102.91   16.32
   3  10  10    4.69    2.62
  -3 -10  10    5.20    2.61
  -3  10  10    3.38    1.99
   3 -10  10    9.92    2.67
   3  10  11   13.19    4.22
  -3 -10  11   16.42    3.83
  -3  10 -11   14.14    4.05
  -3 -10 -11   16.06    4.93
   3  10 -11   11.19    3.62
   3  10  12   12.37    4.32
   3 -10 -12    0.64    0.84
  -3  10 -12   18.11    5.29
  -3 -10  12   19.24    5.85
   3  10 -12   15.49    4.66
   3 -10  12   26.35    6.32
   3  10  13   53.67   16.44
  -3  10 -13   60.08   17.89
  -3 -10  13   53.26   15.25
   3  10 -13   49.74   15.76
   3  10  14   58.53   16.65
  -3  10 -14   69.63   20.62
   3  10 -14   86.72   17.15
   3 -10  14  100.80   20.48
   3  10  15   18.01    5.15
  -3  10 -15   23.44    7.71
   3 -10 -15   11.16    4.41
   3  10 -15   20.66    6.87
   3 -10  15   29.74   14.43
   3  10  16   22.46    8.22
  -3  10 -16   32.95    8.40
   3 -10 -16   15.33    6.36
   3 -10  16   35.50    7.76
   3  10  17   14.43    4.74
  -3  10 -17   19.15    6.03
   3 -10 -17   -0.71    7.67
  -3 -10 -17   15.71    4.74
   3 -10  17   27.79    7.28
  -3  10 -18   53.34   17.26
  -3 -10 -18   51.27   17.41
   3 -10  18   65.81   19.10
  -3 -10 -19    4.14    2.64
  -3 -10 -20   18.06    5.13
  -3  10 -21    3.60    5.42
  -3 -10 -21    8.47    3.94
   3 -10  21   10.92    2.68
  -3 -10 -22   -0.56    2.65
  -3 -10 -23   19.51    5.41
   3  11   0    6.55    3.28
  -3  11   0    5.21    2.77
   3  11   1   31.91   15.26
  -3  11  -1   32.59    8.95
   3  11  -1   30.61    8.47
  -3  11   1   32.24    8.33
  -3 -11  -1   25.79    7.13
   3  11   2   73.19   20.84
  -3  11  -2   79.83   14.39
   3  11  -2   71.75   17.62
  -3  11   2   84.61   15.38
   3 -11   2  101.35   21.09
   3  11   3    4.06    2.39
  -3  11  -3    6.91    3.96
  -3 -11   3    8.55    4.24
  -3  11   3    7.80    4.33
   3  11   4   39.77   11.23
  -3  11  -4   41.65   14.39
   3  11  -4   46.34   10.47
  -3  11   4   41.03   11.41
  -3 -11  -4   41.22   11.74
   3  11   5   50.36   13.66
  -3  11  -5   57.13   16.33
   3  11  -5   59.23   16.99
  -3  11   5   51.91   16.00
  -3 -11  -5   58.41   18.66
   3 -11   5   86.46   17.25
   3  11   6   63.16   17.03
  -3  11  -6   52.24   16.50
   3  11  -6   45.63   15.91
  -3  11   6   47.85   13.93
   3 -11   6   66.92   14.13
   3  11   7   36.93   10.61
  -3  11  -7   32.75   10.56
   3  11  -7   29.95   15.90
  -3  11   7   30.83   10.38
  -3 -11  -7   44.66    9.75
   3  11   8    5.43    3.13
  -3  11  -8    1.62    2.27
   3  11  -8    8.02    4.21
  -3  11   8    5.68    2.76
   3  11   9   36.23   11.28
  -3  11  -9   32.28   10.64
   3 -11   9   50.24   10.00
   3  11  10   22.73    6.46
  -3  11 -10   22.36    8.71
   3 -11  10   32.86    8.97
   3  11  11    8.58    3.35
  -3  11 -11   11.41    4.58
   3 -11 -11    1.94    1.52
   3  11 -11    9.75    3.56
   3 -11  11   11.53    4.01
   3  11  12   36.91   14.10
  -3  11 -12   36.52   13.17
   3  11 -12   33.57   13.13
  -3 -11 -12   41.83   14.27
   3  11  13   70.94   19.98
  -3  11 -13   49.49   19.97
   3  11 -13  104.53   25.62
   3 -11  13   79.91   21.47
   3  11  14   31.48    9.97
  -3  11 -14   39.08   14.68
   3 -11  14   55.29   15.61
  -3  11 -15    5.39    3.07
  -3  11 -16    7.02    2.92
  -3  11 -17   37.35   14.25
   3  12   0   23.00    9.19
  -3  12   0   19.56    9.74
   3  12   1    1.98    1.53
  -3  12  -1   -1.59    2.17
   3  12  -1    1.60    2.55
  -3  12   1   -0.13    1.82
   3  12   2   13.22    4.71
  -3  12  -2    7.82    4.12
   3  12  -2   12.43    5.84
  -3  12   2   10.20    4.45
   3  12   3   12.36    5.04
  -3  12  -3   10.09    4.04
   3  12  -3   13.77    3.58
   3  12   4    4.45    2.45
  -3  12  -4    4.14    2.25
   3  12  -4    3.66    1.74
   3  12   5    2.19    3.42
  -3  12  -5   -0.96    2.64
   3  12  -5    3.04    4.79
   3  12   6   71.81   20.64
  -3  12  -6   68.20   24.35
   3  12  -6   68.99   24.93
   3  12   7   23.86    7.51
  -3  12  -7   27.10   10.63
   3  12  -7   20.77    8.40
   3  12   8   14.95    4.43
  -3  12  -8   15.24    5.49
   3  12  -8   13.58    4.22
   3  12   9   17.43    6.14
  -3  12  -9   19.46    8.46
  -3  12 -10   22.46    9.55
  -3  12 -11   18.33    8.50
  -3  12 -12   29.38   12.63
  -4   0   0  273.72   14.01
  -4   0  -1  677.09   20.18
  -4   0   1  678.07   21.10
  -4   0  -1  627.60   18.81
  -4   0   1  657.46   19.23
   4   0   1  640.19   18.63
  -4   0   1  628.15   18.30
  -4   0  -2   31.02    5.40
  -4   0   2   26.69    4.64
  -4   0   2   30.00    4.37
   4   0   2   23.50    4.51
  -4   0   2   27.82    3.51
  -4   0  -3  968.42   27.95
  -4   0   3  948.16   27.44
  -4   0  -3  866.04   24.61
  -4   0   3  892.30   26.93
   4   0   3  886.63   25.46
  -4   0   3  879.58   25.11
  -4   0  -4   48.37    4.07
  -4   0   4   59.12    9.63
  -4   0  -4   55.33    7.02
  -4   0   4   52.25    9.06
  -4   0   4   65.16    8.63
  -4   0  -5  334.25   11.05
  -4   0   5  335.15   10.55
  -4   0  -5  319.51   10.09
  -4   0   5  313.77   10.13
   4   0   5  334.55   10.24
  -4   0   5  316.04   10.07
  -4   0  -6   46.57    8.30
  -4   0   6   46.35    5.60
  -4   0  -6   44.01    5.19
  -4   0   6   47.96    8.15
   4   0   6   42.55    7.94
  -4   0   6   49.64    7.77
  -4   0  -7   -0.72    1.43
  -4   0  -7    0.06    1.01
  -4   0   7   -0.34    1.50
   4   0   7    1.13    0.85
  -4   0   7    3.09    0.63
   4   0  -8   -0.56    1.05
  -4   0  -8   -0.64    1.52
  -4   0  -8   -0.27    1.06
  -4   0   8    1.43    0.94
   4   0   8   -0.33    1.14
  -4   0   8    1.14    0.71
   4   0  -9   30.17    5.35
  -4   0  -9   32.09    6.15
  -4   0  -9   36.01    4.46
  -4   0   9   37.84    5.51
   4   0   9   34.63    6.54
  -4   0   9   35.15    4.89
  -4   0 -10   58.46    6.80
  -4   0  10   57.15    7.59
   4   0  10   60.04    4.98
  -4   0  10   60.81    4.91
   4   0 -11  945.76   36.48
  -4   0 -11  998.05   40.04
  -4   0 -11  978.12   37.52
   4   0  11 1068.75   34.93
  -4   0  11 1024.74   33.78
  -4   0 -12   74.64    7.57
   4   0 -12  151.66   26.36
  -4   0  12   80.60    8.10
   4   0 -13   60.01    6.08
  -4   0 -13   67.74   12.62
   4   0 -13   75.88    8.43
  -4   0 -13   73.02    8.45
   4   0  13   66.11   11.06
  -4   0  13   68.72   11.41
   4   0 -14  800.91   38.89
  -4   0 -14  787.00   39.07
   4   0 -14  783.19   43.87
  -4   0 -14  773.15   38.48
   4   0  14  841.07   41.30
  -4   0  14  787.04   40.62
  -4   0 -15 1661.22  181.25
   4   0  15 1625.70  177.22
  -4   0  15 1563.18   76.32
  -4   0 -16  119.64   14.13
   4   0  16  120.07   10.03
  -4   0  16  117.03   16.72
  -4   0 -17   -3.06    3.31
   4   0 -17    2.81    1.16
   4   0  17    1.08    1.01
  -4   0  17    1.63    1.26
   4   0 -18  198.98   16.17
   4   0  18  185.70   14.87
  -4   0  18  179.50   18.31
  -4   0 -19   53.93   10.05
  -4   0 -19   61.06   10.02
   4   0  19   53.69   11.03
  -4   0  19   48.26    7.98
  -4   0 -20   24.16    4.47
   4   0 -20   24.85    6.02
  -4   0 -20   28.57    7.29
   4   0  20   26.94    6.03
  -4   0  20   27.24    4.56
  -4   0 -21    1.76    1.20
  -4   0  21   -0.38    2.53
  -4   0 -22  163.29   17.17
   4   0 -22  151.11   27.43
  -4   0 -22  160.21   19.08
  -4   0  22  173.20   29.87
  -4   0 -23  205.07    6.13
   4   0 -23  208.11   14.89
  -4   0 -23  194.46    5.92
  -4   0  23  199.63    6.47
   4   0 -24   29.68    5.81
  -4   0 -24   27.34    7.09
  -4   0  24   25.39    5.71
  -4   0 -25   58.39   11.20
   4   0 -25   67.10   13.23
  -4   0 -25   64.91    7.38
  -4   0  25   74.44    9.91
  -4   0 -26   97.90   19.50
   4   0 -26  121.06   21.37
  -4   0 -26  104.34   20.14
   4   0  26  122.54   15.94
  -4   0  26  125.52   24.71
  -4   0 -27    5.22    2.19
   4   0 -27   13.68    3.98
  -4   0 -27    7.00    2.17
   4   0  27    9.52    2.85
  -4   0  27    2.66    1.69
  -4   0 -28   21.05    4.90
   4   0 -28   32.20    7.93
   4   0  28   29.19    7.68
  -4   0  28   29.75    7.50
   4   0 -29   19.07    5.45
   4   0  29   15.01    3.88
  -4   0  29   14.34    3.57
   4   0 -30   37.71    7.84
   4   0  30   28.58    7.77
  -4   0  30   28.59   10.52
   4   0 -31    6.82    4.20
   4   0  31    2.24    1.29
  -4   0  31    2.89    1.87
   4   0 -32    0.95    1.27
  -4   0  32    3.53    2.33
   4   0 -33    5.59    3.04
  -4   0  33   -0.22    2.46
   4   0 -34   -0.54    2.58
  -4   0  34   -0.43    2.63
   4   0 -35   16.48    3.79
  -4   0  35    6.72    4.74
   4   0 -36    4.35    1.93
  -4   1   0  282.77    9.92
  -4  -1   0  289.33    9.96
  -4  -1   0  291.60    9.70
  -4   1   0  284.50    9.79
  -4   1  -1   12.87    2.20
   4   1   1   14.36    2.37
  -4  -1   1   15.13    2.44
  -4  -1   1   17.72    2.60
  -4   1  -1   14.88    2.69
  -4  -1  -1   15.28    2.08
  -4   1   1   13.67    2.78
   4  -1   1   15.63    3.39
  -4   1   1   15.50    2.38
  -4  -1  -1   14.20    2.87
  -4   1  -2   18.76    3.80
  -4   1  -2   14.21    4.10
  -4  -1   2   16.95    2.45
  -4  -1   2   16.73    3.21
  -4  -1  -2   32.60    3.09
  -4   1   2   17.56    3.54
   4  -1   2   21.87    4.40
  -4   1   2   16.32    2.99
  -4   1   2   19.68    3.29
   4   1   3   56.61    6.78
  -4   1  -3   60.56    7.59
  -4  -1   3   61.41    8.62
  -4   1  -3   55.32    6.40
  -4  -1   3   56.59    4.08
  -4  -1  -3   62.68   10.94
  -4   1   3   57.80    4.80
   4   1  -3   57.22    4.58
  -4   1   3   61.19    9.31
  -4   1   3   62.77    9.53
  -4   1  -4   68.30   10.97
   4   1   4   67.27    4.67
  -4  -1   4   63.30    4.53
  -4   1  -4   61.71    6.82
  -4  -1   4   74.28   11.65
  -4  -1  -4   72.60   11.08
  -4   1   4   71.49    9.47
   4  -1   4   66.74    5.05
  -4   1   4   62.37    6.70
  -4  -1  -4   72.75    9.26
  -4   1   4   80.73   10.32
  -4   1  -5  197.54    7.14
  -4  -1   5  200.43    6.78
  -4  -1   5  198.77    7.73
  -4   1  -5  202.23   11.36
  -4  -1  -5  210.32   15.63
  -4  -1  -5  184.00    6.96
  -4   1   5  187.00    6.74
   4  -1   5  207.83    7.29
  -4   1   5  199.29    6.91
  -4   1   5  199.86    9.28
  -4  -1   6  152.22   10.37
  -4   1  -6  139.18    9.67
  -4  -1   6  152.77   10.05
  -4   1  -6  154.90   11.78
   4   1  -6  148.74    8.70
  -4  -1  -6  151.22   10.75
  -4  -1  -6  144.32   10.43
  -4   1   6  146.18   10.27
   4  -1   6  151.84   10.10
  -4   1   6  152.57   10.10
  -4   1   6  136.76    9.32
  -4  -1   7  306.80   17.15
  -4   1  -7  324.71   17.91
  -4  -1   7  304.33   17.15
  -4   1  -7  322.88   17.45
   4   1  -7  270.95   15.55
  -4  -1  -7  330.62   21.37
  -4  -1  -7  316.74   17.62
  -4   1   7  309.16   16.90
   4  -1   7  330.53   18.00
  -4   1   7  353.22   19.21
  -4   1   7  304.04   18.31
  -4  -1   8   73.40    8.54
  -4   1  -8   62.12    4.03
  -4   1  -8   60.70    5.11
  -4  -1   8   77.43   10.70
   4   1  -8   73.52    4.32
  -4  -1  -8   66.42    5.35
  -4  -1  -8   58.37    3.87
   4  -1   8   62.09    4.29
  -4   1   8   64.03    6.65
  -4   1   8   65.31    4.24
  -4  -1   9  146.12    8.76
  -4   1  -9  155.33    9.48
  -4   1  -9  151.17    8.56
  -4  -1   9  152.91    9.02
   4   1  -9  149.29    9.06
  -4  -1  -9  146.64    9.80
  -4  -1  -9  162.80    9.66
   4  -1   9  166.36   10.65
  -4   1   9  171.98    9.95
  -4   1   9  147.58    8.86
  -4   1 -10   27.01    5.39
  -4  -1  10   32.12    4.37
  -4   1 -10   30.65    5.69
   4  -1 -10   32.62    5.77
  -4  -1  10   30.27    3.81
  -4  -1 -10   29.65    5.20
  -4   1  10   23.38    3.09
   4  -1  10   27.03    7.00
  -4  -1 -10   27.97    5.42
  -4   1  10   27.36    3.99
  -4   1 -11  183.47    8.54
  -4   1 -11  179.71    8.85
  -4  -1  11  175.53    8.25
  -4  -1  11  182.88    8.68
  -4  -1 -11  179.29    8.21
  -4   1  11  179.40    7.68
   4  -1  11  186.39    8.32
  -4  -1 -11  184.77    8.69
  -4   1  11  171.28    8.07
   4  -1 -12  217.32    9.46
  -4  -1  12  226.88   10.15
  -4   1 -12  237.46   10.85
  -4  -1  12  233.85   10.78
  -4   1 -12  240.24   17.04
  -4  -1 -12  223.59   12.89
  -4  -1 -12  225.40   10.09
   4  -1  12  236.80   14.30
   4   1 -12  214.68   11.68
  -4   1  12  227.62   10.48
   4  -1 -13   59.03    6.98
   4   1  13   66.80    7.91
  -4   1 -13   51.48   10.82
  -4  -1  13   74.47   10.58
  -4   1 -13   61.92    6.04
  -4  -1  13   62.05    6.40
  -4  -1 -13   67.55    6.99
   4  -1  13   65.24    7.41
   4   1 -13   67.40    7.58
  -4  -1 -13   68.85   10.88
  -4   1  13   66.68    7.13
  -4  -1  14  427.08   22.35
  -4   1 -14  414.19   21.56
  -4   1 -14  425.35   21.46
  -4  -1 -14  417.57   21.71
   4   1 -14  423.71   20.98
   4  -1  14  449.45   22.74
  -4  -1 -14  399.87   24.26
  -4   1  14  403.86   20.93
  -4   1 -15  124.85    7.42
  -4   1 -15  130.98   13.69
  -4  -1  15  129.60   15.09
   4  -1 -15  152.21   12.33
   4   1  15  138.49    8.00
   4   1 -15  126.02    7.20
   4   1 -15  175.90   10.75
   4  -1  15  131.86   10.55
  -4  -1 -15  133.55   11.81
  -4  -1 -15  126.30    9.96
  -4   1  15  154.55    9.48
  -4   1 -16   38.98    7.38
  -4   1 -16   34.82    6.64
   4  -1 -16   33.91    6.70
   4   1  16   37.01    7.04
  -4  -1  16   36.06    6.03
   4  -1  16   31.56   10.17
  -4  -1 -16   40.00    6.39
   4   1 -16   33.74   10.52
  -4   1  16   49.20    9.42
  -4   1 -17   15.31    2.80
   4  -1 -17   14.76    3.54
   4   1  17   16.17    3.27
  -4  -1  17   19.94    3.80
   4  -1  17   17.30    4.05
  -4  -1 -17   16.29    3.07
   4   1 -17   14.71    4.30
  -4   1  17   16.93    3.53
  -4  -1  18  104.12   10.46
  -4   1 -18   94.85   10.45
   4  -1 -18   94.73   13.43
   4   1  18   97.45   16.61
   4   1 -18   89.02   12.66
   4  -1  18   98.17   10.02
  -4  -1 -18   86.94    8.43
  -4  -1 -18   86.64   14.84
  -4   1  18   97.20   14.27
  -4  -1  19  177.09   15.31
   4  -1 -19  178.28   14.58
  -4   1 -19  177.25   19.11
   4   1  19  197.16   15.70
   4   1 -19  189.42   28.66
  -4  -1 -19  162.82   13.74
   4  -1  19  190.84   15.46
  -4  -1 -19  180.76   14.61
  -4   1  19  178.02   24.11
  -4   1 -20   29.71    5.27
  -4  -1  20   33.48    6.56
   4  -1 -20   26.89    4.83
  -4   1 -20   25.97    4.82
   4   1  20   25.93    5.22
   4   1 -20   36.90    6.68
  -4  -1 -20   31.92    6.53
   4  -1  20   36.17    6.96
  -4  -1 -20   29.22    6.15
  -4   1  20   34.70    5.90
  -4   1 -21   16.39    3.18
  -4  -1  21   19.02    4.05
   4  -1 -21   20.26    3.47
  -4   1 -21   14.90    2.24
   4   1  21   15.84    3.15
   4   1 -21   17.25    3.86
  -4  -1 -21   18.47    3.45
   4  -1  21   15.71    3.77
  -4  -1 -21   15.66    3.14
  -4   1  21   15.50    3.10
  -4   1 -22   24.61    5.35
  -4  -1  22   31.94    6.15
   4  -1 -22   30.25    7.21
  -4   1 -22   27.17    4.24
   4   1  22   27.21    5.37
   4   1 -22   24.93    5.77
  -4  -1 -22   27.94    5.05
   4  -1  22   29.64    5.72
  -4  -1 -22   26.27    4.40
  -4   1  22   28.38    4.38
  -4   1 -23   12.98    3.60
  -4  -1  23   21.52    7.15
  -4   1 -23   13.92    3.22
   4  -1 -23   22.06    5.34
   4   1  23   21.80    4.20
   4   1 -23   23.56    4.77
   4  -1  23   21.18    7.75
  -4  -1 -23   22.60    5.45
  -4  -1 -23   20.72    4.92
  -4   1  23   14.05    3.53
  -4   1 -24  226.58   21.65
  -4   1 -24  218.06   20.43
   4  -1 -24  244.10   23.11
   4   1  24  242.57   24.27
  -4  -1  24  246.21   23.39
   4  -1  24  245.49   23.28
  -4  -1 -24  233.67   21.97
   4   1 -24  236.11   22.41
  -4   1  24  249.85   28.49
   4   1  25   23.30    5.94
   4  -1 -25   36.46    8.09
  -4   1 -25   21.68    5.64
  -4  -1  25   35.34    8.43
   4   1 -25   34.73    6.87
  -4  -1 -25   37.71    7.33
   4  -1  25   43.75    7.37
  -4   1  25   39.07    7.95
   4   1  26  108.57   13.13
  -4   1 -26  131.58   26.35
   4  -1 -26  166.27   24.72
  -4  -1  26  145.09   25.25
   4   1  26  136.08   21.61
   4   1 -26  154.54   21.57
   4  -1  26  154.43   20.78
  -4  -1 -26  151.20   16.98
  -4   1  26  149.64   25.45
   4   1  27    0.95    1.86
  -4   1 -27    3.26    1.44
   4  -1 -27    5.49    1.72
  -4  -1  27    1.57    1.96
   4   1  27    1.65    0.90
   4   1 -27    4.21    1.66
   4  -1  27    7.11    2.32
  -4  -1 -27    4.22    1.67
  -4   1  27    0.94    1.51
   4   1  28   10.92    3.76
  -4   1 -28    9.69    4.15
   4  -1 -28   16.33    4.15
  -4  -1  28   17.16    4.39
   4   1  28   12.29    2.81
   4   1 -28   17.02    3.31
   4  -1  28   15.92    4.06
  -4  -1 -28   10.79    5.40
  -4   1  28   12.60    3.85
  -4   1 -29    2.13    1.05
   4  -1 -29    0.77    1.36
  -4  -1  29    0.88    1.74
   4   1  29    0.60    0.77
   4   1 -29    3.07    2.03
   4  -1  29    3.26    1.78
  -4  -1 -29    0.56    0.74
  -4   1  29    0.60    1.53
   4  -1 -30   24.67    5.09
  -4  -1  30   23.60    6.95
   4   1 -30   22.97    4.63
  -4   1  30   21.79    5.59
   4  -1 -31   18.52    3.83
  -4  -1  31   13.44    3.46
   4   1 -31   15.25    3.38
  -4   1  31   15.10    3.71
   4  -1 -32   34.91    7.94
  -4  -1  32   24.02    7.84
   4   1 -32   32.56    7.54
  -4   1  32   18.18    6.78
   4  -1 -33    9.56    3.43
  -4  -1  33   10.24    3.87
   4   1 -33   12.52    4.27
  -4   1  33    9.92    4.54
   4  -1 -34    3.59    5.52
  -4  -1  34    1.33    2.22
   4   1 -34    6.67    2.97
  -4   1  34    3.12    4.76
   4  -1 -35    4.02    1.97
  -4  -1  35    2.07    3.23
   4   1 -35    5.62    2.37
  -4   1  35    5.11    2.86
   4   2   0   11.57    2.21
  -4   2   0   14.46    3.77
  -4  -2   0   17.68    3.40
  -4   2   0   18.74    2.97
   4   2   0   17.62    2.83
   4   2   1  208.61    7.72
  -4   2  -1  208.98    7.81
  -4   2  -1  198.88    6.49
  -4  -2   1  208.67    9.64
   4   2  -1  211.62    7.92
  -4  -2  -1  209.64    8.65
  -4   2   1  210.40    8.21
  -4   2   1  204.15    7.07
   4   2   2    3.64    2.62
   4   2   2   -0.09    0.36
  -4   2  -2    1.45    1.18
  -4   2  -2    0.62    0.60
  -4  -2   2    1.78    0.82
  -4  -2   2    0.78    0.71
  -4  -2  -2    1.72    1.31
  -4   2   2    0.33    0.81
   4   2  -2    2.15    1.89
  -4   2   2   -0.52    2.04
  -4   2   2    2.47    1.56
   4   2   3  453.63   17.71
  -4   2  -3  442.24   14.12
  -4   2  -3  409.92   12.21
   4   2   3  443.90   12.65
  -4  -2   3  424.51   15.07
  -4  -2   3  452.56   13.09
  -4   2   3  413.55   12.73
  -4  -2  -3  449.85   14.08
  -4   2   3  450.40   15.52
   4   2   4  253.83   14.77
  -4   2  -4  253.12   15.42
  -4  -2   4  268.59   15.12
   4  -2  -4  332.49   18.34
   4   2   4  274.96   14.74
  -4  -2   4  262.93   14.22
  -4   2  -4  253.26   13.73
  -4  -2  -4  273.23   18.14
  -4   2   4  256.95   14.69
  -4   2   4  271.36   15.27
   4   2   5  145.11    9.62
  -4   2  -5  143.67    9.27
  -4   2  -5  152.01    8.58
   4  -2  -5  162.29    9.27
   4   2   5  157.98    8.63
  -4  -2   5  146.95    8.25
  -4  -2   5  155.36    9.26
  -4  -2  -5  143.24   11.13
  -4   2   5  150.08   15.02
  -4   2   5  145.22    8.70
   4   2   6  117.45   11.17
   4  -2  -6  137.78    8.30
  -4   2  -6  137.45    8.26
  -4  -2   6  134.44    7.73
  -4  -2   6  135.35    8.38
  -4   2  -6  137.33    7.69
   4   2   6  151.36    8.30
  -4  -2  -6  133.95    8.16
   4   2  -6  113.53    6.20
   4  -2   6  149.67    8.93
  -4   2   6  141.39    8.22
  -4   2   6  140.80    8.67
   4   2   7  222.31   13.02
   4  -2  -7  262.54   14.49
  -4   2  -7  251.94   14.19
  -4  -2   7  264.99   14.81
  -4  -2   7  258.35   14.63
  -4   2  -7  257.19   13.79
   4   2   7  252.17   13.62
  -4  -2  -7  266.59   15.19
   4   2  -7  261.41   15.03
   4  -2   7  266.35   15.47
  -4   2   7  264.79   14.56
  -4   2   7  261.67   16.13
   4   2   8   55.22    9.93
  -4  -2   8   47.56    6.63
  -4   2  -8   53.44   10.02
  -4  -2   8   48.29    8.11
   4  -2  -8   52.03    8.14
  -4   2  -8   42.53    3.42
   4   2   8   46.08    2.71
  -4   2   8   52.12    5.85
   4   2  -8   51.44    8.47
  -4   2   8   55.37    7.42
   4   2   9  253.12   14.69
  -4  -2   9  253.63   14.96
  -4   2  -9  242.72   14.06
  -4   2  -9  233.30   12.58
   4  -2  -9  239.91   14.20
  -4  -2   9  240.50   13.73
  -4  -2  -9  231.12   13.57
  -4   2   9  238.17   13.11
   4   2  -9  249.28   13.98
  -4   2   9  237.40   13.59
   4   2  10   46.81    8.60
   4   2  10   53.19    5.58
  -4   2 -10   44.71    7.65
  -4   2 -10   53.28    5.10
   4  -2 -10   38.39    8.92
  -4  -2  10   42.68    7.66
  -4  -2  10   50.21    7.83
  -4  -2 -10   46.05    7.88
   4   2 -10   43.55    6.94
  -4   2  10   39.03    7.49
  -4   2  10   48.18    9.71
   4   2  11   90.77    9.10
  -4   2 -11   91.08    4.80
  -4   2 -11  107.01    4.75
   4  -2 -11   93.18   10.85
   4   2  11   98.93    5.39
  -4  -2  11   99.18    9.31
  -4  -2  11  101.14   15.87
  -4  -2 -11   88.66    8.67
  -4   2  11   94.31    4.16
  -4   2  11   94.92    7.82
   4   2  12    9.33    3.04
  -4  -2  12   16.79    2.95
  -4   2 -12   17.27    3.82
  -4  -2  12   17.56    2.96
   4   2  12   18.43    3.18
  -4   2 -12   14.77    2.47
  -4   2  12   15.17    3.07
  -4  -2 -12   19.60    3.15
   4   2 -12   11.79    2.98
  -4   2  12   17.00    2.98
   4   2  13  161.06    9.55
  -4   2 -13  183.17    9.55
  -4   2 -13  190.90   10.75
  -4  -2  13  184.83   11.95
  -4  -2  13  177.24   10.07
   4   2 -13  170.25   10.48
  -4   2  13  194.00    9.97
  -4   2  13  163.35    9.57
   4   2  14  371.79   19.78
  -4   2 -14  388.61   19.25
  -4   2 -14  371.94   19.27
   4   2  14  424.11   21.18
  -4  -2  14  389.97   20.16
  -4  -2  14  409.96   22.59
  -4  -2 -14  369.17   19.24
   4   2 -14  386.41   19.71
  -4   2  14  399.93   20.97
   4   2  15  284.24   15.31
  -4   2 -15  297.09   14.90
  -4   2 -15  292.42   24.62
   4   2  15  346.26   17.66
  -4  -2  15  295.61   16.58
  -4  -2  15  306.68   16.61
  -4  -2 -15  351.18   29.54
   4   2 -15  322.05   16.74
  -4   2  15  314.84   17.97
   4   2  16    3.30    1.23
   4   2  16    8.37    1.90
  -4   2 -16    5.93    2.20
  -4   2 -16    6.03    1.17
   4  -2 -16    5.39    2.47
  -4  -2  16    7.01    1.65
  -4  -2 -16    4.61    1.06
   4  -2  16    8.39    1.86
   4   2 -16    5.38    1.45
   4   2 -16   24.13    5.37
  -4   2  16    8.44    2.78
   4   2  17  334.48   26.44
   4   2  17  354.79   27.29
  -4  -2  17  353.67   28.58
   4  -2  17  352.60   27.59
  -4   2  17  338.94   26.56
  -4   2 -18   41.11    7.41
  -4  -2  18   35.15    5.98
   4   2  18   36.16    5.43
   4  -2  18   36.46    8.68
   4   2 -18   49.46    8.72
  -4   2  18   44.86    7.29
   4   2  19    8.56    2.05
   4   2  19    6.86    1.99
  -4  -2  19    8.50    1.60
   4  -2  19    6.54    2.03
   4   2 -19   10.75    2.35
  -4  -2 -19    7.08    2.08
  -4   2  19   11.87    2.29
   4   2  20   10.91    2.41
  -4   2 -20   12.22    3.43
   4  -2 -20   13.23    3.37
  -4  -2  20   13.28    2.89
   4   2  20   13.32    2.99
   4   2 -20   14.91    3.48
   4  -2  20   17.17    4.00
  -4  -2 -20   14.08    2.98
  -4   2  20   14.67    3.44
   4   2  21   35.74    5.64
  -4   2 -21   39.24    7.59
   4  -2 -21   35.20    6.94
  -4  -2  21   42.31    7.86
   4   2  21   35.48    7.10
   4   2 -21   37.19    6.52
   4  -2  21   44.46    7.76
  -4  -2 -21   43.76    8.29
  -4   2  21   44.39    7.73
   4   2  22   29.61    7.46
  -4   2 -22   30.43    6.57
   4  -2 -22   34.17    6.31
  -4  -2  22   38.59    9.04
   4   2  22   30.45    6.22
   4   2 -22   39.64    7.37
   4  -2  22   42.04    7.47
  -4  -2 -22   33.43   11.46
  -4   2  22   38.84    9.14
  -4   2 -23  219.77    6.79
   4  -2 -23  215.92    7.70
  -4  -2  23  239.34    7.28
   4   2  23  203.01    9.93
   4   2 -23  219.15    7.45
   4  -2  23  215.04    6.70
  -4  -2 -23  207.09    7.93
  -4   2  23  231.43   24.33
   4   2  24   12.39    2.95
  -4   2 -24   16.75    4.05
   4  -2 -24   16.00    4.07
  -4  -2  24   19.57    4.26
   4   2  24   13.05    3.30
   4   2 -24   27.40    8.51
   4  -2  24   22.77    5.30
  -4  -2 -24   16.47    4.75
   4   2  25   53.40    9.53
   4  -2 -25   92.71   16.25
  -4  -2  25   77.35   12.72
   4   2  25   70.73   12.93
   4   2 -25   75.72   13.06
   4  -2  25   78.86   16.94
  -4  -2 -25   85.52   15.52
  -4   2  25   83.91   14.29
   4   2  26   14.40    4.95
  -4   2 -26   30.14    5.41
   4  -2 -26   32.64    6.71
  -4  -2  26   30.72    5.22
   4   2  26   27.13    4.57
   4   2 -26   31.68    5.33
   4  -2  26   32.23    7.08
  -4  -2 -26   28.99    4.03
  -4   2  26   32.49    5.08
   4   2  27   24.68    7.07
  -4   2 -27   33.15    7.95
   4  -2 -27   36.54    8.08
  -4  -2  27   38.42   14.56
   4   2 -27   46.72    6.55
  -4  -2 -27   36.74   10.30
   4  -2  27   37.52    8.36
  -4   2  27   34.05    9.31
   4   2  28    2.90    1.18
  -4   2 -28    1.04    1.07
   4  -2 -28    1.75    1.47
  -4  -2  28    0.02    1.32
   4   2 -28    3.88    1.55
  -4  -2 -28    1.02    1.17
   4  -2  28    2.43    1.52
  -4   2  28    1.62    2.05
   4  -2 -29   50.75    7.88
  -4  -2  29   44.81   11.34
   4   2 -29   65.01   11.07
  -4  -2 -29   45.49   11.00
   4  -2  29   49.12    8.25
  -4   2  29   42.57    9.27
   4  -2 -30    3.28    1.74
  -4  -2  30    4.22    2.46
   4   2 -30    6.81    3.51
  -4  -2 -30    0.26    1.10
   4  -2  30    2.79    1.71
  -4   2  30   -0.15    2.36
  -4  -2  31    6.87    4.02
   4  -2 -31    8.32    3.98
   4  -2  31    7.31    3.59
   4   2 -31    8.17    4.07
  -4   2  31    6.46    3.72
  -4  -2  32    3.56    1.90
   4  -2 -32    5.63    2.83
   4  -2  32    6.22    2.61
   4   2 -32   11.17    3.96
  -4   2  32    3.75    3.02
  -4  -2  33    5.76    8.44
   4  -2 -33    7.64    2.74
   4  -2  33   11.17    3.75
   4   2 -33   11.30    3.92
  -4   2  33    7.73    3.04
   4  -2 -34    9.28    3.70
  -4  -2  34    6.99    3.25
   4   2 -34    9.42    3.62
  -4   2  34    5.97    3.32
   4  -2 -35   19.33    5.70
   4   2 -35   20.26    4.10
  -4   2  35   16.36    4.99
   4   3   0  126.25    7.68
  -4   3   0  134.23    8.32
   4  -3   0  121.52   11.02
  -4  -3   0  120.52   13.76
   4  -3   0  151.52    9.05
   4  -3  -1   41.81   10.79
   4  -3  -1   10.78    2.87
  -4   3  -1   10.01    1.81
  -4  -3   1   16.16    2.42
  -4   3   1   10.59    3.46
  -4  -3  -1   10.40    1.99
   4  -3   1   11.57    2.17
   4   3  -1   11.28    2.17
   4  -3   1   16.47    2.87
   4   3   2  321.35   17.85
  -4  -3   2  283.87   15.04
  -4   3  -2  295.03   16.42
  -4  -3   2  282.15   15.97
   4  -3   2  306.69   16.23
  -4  -3  -2  293.92   16.51
  -4   3   2  274.21   15.19
   4  -3   2  284.64   15.89
   4   3  -2  309.42   17.13
  -4   3  -3  133.60    9.08
  -4  -3   3  143.75    7.86
  -4   3   3  143.28    8.45
   4  -3   3  146.98    8.00
  -4   3   3  139.13   10.02
  -4   3  -4  243.31   14.33
  -4  -3   4  249.21   13.39
  -4  -3  -4  245.36   17.21
   4  -3   4  253.22   14.38
  -4   3   4  249.79   14.26
  -4   3  -5  463.33   25.34
   4  -3  -5  450.26   24.10
  -4  -3   5  465.69   28.64
  -4  -3   5  451.31   23.87
  -4   3   5  427.54   23.24
   4  -3   5  508.17   27.42
  -4   3   5  483.66   27.32
  -4   3  -6  490.39   26.98
  -4  -3   6  464.56   25.66
   4  -3  -6  465.34   25.31
  -4  -3   6  467.62   24.77
  -4   3   6  445.44   24.12
   4  -3   6  512.14   27.71
  -4  -3  -6  512.96   28.19
  -4   3   6  487.93   26.60
   4   3   7   43.33    8.86
  -4  -3   7   47.87    5.56
  -4   3  -7   45.38   10.12
  -4  -3   7   55.17    6.29
   4  -3  -7   50.00    8.51
  -4  -3  -7   53.97    9.17
  -4   3   7   52.57    7.93
   4  -3   7   56.66   11.55
   4   3  -7   45.66    9.67
   4   3   8  464.72   19.10
  -4  -3   8  431.62   17.10
  -4   3  -8  455.42   18.79
  -4  -3   8  466.28   19.33
   4  -3  -8  468.97   19.04
  -4  -3  -8  451.72   18.64
  -4   3   8  425.18   16.95
   4  -3   8  481.98   19.56
   4   3  -8  385.95   15.71
   4   3   9   45.57   10.17
   4  -3  -9   63.20    9.81
  -4   3  -9   54.28    7.44
  -4  -3   9   59.09    7.01
  -4  -3   9   65.38   11.17
   4   3  -9   51.73    5.57
  -4   3   9   54.96    9.48
  -4   3   9   62.25   11.36
   4   3  10   91.04   14.75
  -4  -3  10   86.04    8.13
  -4   3 -10   81.42    8.06
  -4  -3  10   97.03   11.95
   4  -3 -10   94.31   10.03
  -4  -3 -10   85.60    8.82
  -4   3  10   91.88    4.34
   4  -3  10   92.29    9.56
   4   3 -10   88.20   10.06
   4   3  11  206.61   12.57
  -4   3 -11  167.33    9.53
  -4  -3  11  185.34    9.91
   4  -3 -11  180.30    9.92
  -4  -3  11  182.99   10.39
  -4   3  11  184.61    9.66
   4   3  12  462.38   24.09
  -4   3 -12  443.55   22.91
  -4  -3  12  433.41   24.57
   4  -3 -12  439.45   22.33
  -4  -3  12  409.45   20.64
  -4  -3 -12  408.73   21.14
  -4   3  12  409.26   20.71
  -4   3  12  412.78   21.78
   4   3  13   12.72    3.31
   4  -3 -13   15.73    3.51
  -4   3 -13   18.09    3.44
  -4  -3  13   19.50    3.07
  -4  -3  13   17.27    2.60
  -4  -3 -13   17.62    2.75
  -4   3  13   12.59    2.38
   4   3 -13   15.77    4.05
  -4   3  13   18.57    3.46
   4   3  14   48.27   11.83
  -4  -3  14   50.11    9.10
  -4   3 -14   43.88    9.07
   4  -3 -14   44.52   11.62
  -4  -3  14   44.37    7.77
   4   3 -14   46.17    5.59
  -4   3  14   45.98    8.00
   4   3  15   70.34    9.97
  -4   3 -15   71.67   14.59
   4  -3 -15   65.82   11.96
  -4  -3  15   72.49   12.99
  -4  -3  15   70.17   12.48
   4   3 -15   67.93    7.83
  -4  -3 -15   69.06    8.87
  -4   3  15   70.18   10.86
   4   3  16   43.91    7.96
  -4   3 -16   51.69    8.75
   4  -3 -16   42.64   10.16
  -4  -3  16   45.97    6.77
  -4  -3  16   53.06    7.24
   4   3 -16   40.00    7.02
  -4  -3 -16   48.41    8.30
  -4   3  16   46.96    7.50
   4   3  17   13.00    2.29
  -4  -3  17   15.43    2.32
  -4   3 -17   15.83    2.48
   4  -3 -17   19.31    5.11
  -4  -3  17   20.18    3.06
   4   3 -17   12.51    3.57
  -4   3  17   17.81    3.79
   4   3  18   11.17    2.56
  -4   3 -18   11.72    2.58
   4  -3 -18   13.16    3.17
  -4  -3  18   10.72    1.87
   4   3 -18   38.03    8.61
  -4  -3 -18   11.36    2.73
   4  -3  18    7.04    1.65
  -4   3  18    8.97    2.33
   4   3  19    2.43    1.71
   4   3  19    4.46    1.37
  -4  -3  19    5.47    1.62
   4  -3  19    4.17    2.56
   4   3 -19    9.34    2.75
  -4  -3 -19    8.28    2.69
  -4   3  19    2.75    1.64
   4   3  20   80.70   13.09
  -4   3 -20   99.15   16.00
  -4  -3  20  108.02   12.86
  -4  -3 -20  116.72   19.40
   4  -3  20  104.03   19.17
   4   3 -20   99.72   15.69
  -4   3  20  100.08   13.72
   4   3  21    4.25    1.77
  -4   3 -21    5.44    1.65
  -4  -3  21    7.62    2.40
  -4  -3 -21    6.52    1.62
   4  -3  21    7.86    1.83
   4   3 -21   11.69    2.59
  -4   3  21    9.98    3.07
  -4   3 -22    1.47    1.46
  -4  -3  22   -0.24    1.42
   4   3 -22   -0.28    1.98
  -4  -3 -22    1.83    0.86
  -4   3  22    1.72    1.26
   4   3  23   13.65    3.51
  -4   3 -23    8.91    2.10
  -4  -3  23   11.57    2.81
   4  -3 -23    9.62    2.99
  -4  -3 -23   13.57    3.14
   4   3 -23   20.46    8.56
  -4   3  23    8.29    3.08
   4   3  24   56.03   11.82
  -4   3 -24   57.99   11.02
  -4  -3  24   70.50   10.72
   4   3 -24   84.18   13.92
  -4  -3 -24   67.60   12.36
  -4   3  24   77.09   15.09
   4   3  25   28.70    4.64
  -4   3 -25   32.29    6.98
  -4  -3  25   41.38    6.21
   4   3 -25   42.74    4.97
  -4  -3 -25   39.39    5.89
  -4   3  25   33.50    5.62
   4   3  26    4.47    1.32
  -4   3 -26    8.57    3.09
  -4  -3  26   10.92    2.87
  -4  -3 -26   12.21    3.10
   4  -3  26   12.86    3.90
   4   3 -26    9.80    3.27
  -4   3  26   12.27    3.82
   4   3  27   18.46    5.74
  -4   3 -27   21.62    5.82
  -4  -3  27   22.25    6.39
  -4  -3 -27   26.91    5.46
   4  -3  27   29.41    5.86
   4   3 -27   31.66    6.49
  -4   3  27   28.75    5.85
  -4   3 -28   16.92    5.58
   4  -3 -28   20.51    4.64
  -4  -3  28   20.87    5.21
   4   3 -28   36.11    6.09
  -4  -3 -28   24.92    6.27
   4  -3  28   38.65    8.07
  -4   3  28   28.58    6.02
  -4  -3  29    6.26    3.13
   4  -3 -29    9.24    4.25
   4  -3  29   12.20    7.13
   4   3 -29   13.51    3.02
  -4   3  29   12.02    3.77
   4  -3 -30   39.37    8.10
  -4  -3  30   39.61   10.32
   4   3 -30   45.40    9.88
  -4  -3 -30   36.79    9.01
   4  -3  30   43.75   11.21
  -4   3  30   38.27   10.64
   4  -3 -31    9.10    2.72
  -4  -3  31    5.88    3.23
   4   3 -31   12.03    3.38
  -4  -3 -31   10.79    3.56
   4  -3  31   14.95    4.07
  -4   3  31   11.94    3.98
  -4  -3  32   19.51    7.58
   4  -3 -32   30.82    8.69
   4  -3  32   26.30    8.05
   4   3 -32   28.92    8.46
  -4   3  32   25.01   36.67
   4  -3 -33    5.37    2.69
   4   3 -33    5.71    2.21
   4  -3  33    3.24    5.12
  -4   3  33    2.32    3.60
   4  -3 -34   21.19    5.39
   4   3 -34   20.00    4.98
  -4   3  34   27.50    8.01
  -4   4   0  177.98   39.91
  -4  -4   0  183.15   10.53
  -4   4  -1  722.40   28.90
   4  -4  -1  703.87   26.87
  -4  -4   1  696.97   27.72
   4  -4  -1  752.26   29.93
  -4   4   1  698.67   28.35
  -4  -4  -1  717.96   28.72
   4  -4  -2  185.24    7.53
  -4   4  -2  201.51   10.52
  -4  -4   2  210.78   10.12
  -4   4   2  206.92   11.18
   4   4  -2  222.36   10.27
   4   4   3  304.23   13.60
  -4   4  -3  274.65   12.24
  -4  -4   3  275.29   12.23
   4  -4  -3  278.92   11.08
  -4  -4  -3  270.49   12.74
  -4   4   3  274.28   12.29
   4   4   4   68.18    8.01
  -4   4  -4   78.95   14.13
   4  -4  -4   57.50    5.46
  -4  -4   4   56.05   11.70
  -4   4   4   69.70    9.63
  -4  -4  -4   70.68   13.19
  -4   4   4   65.69   10.24
   4   4   5    4.74    3.72
   4  -4  -5    3.80    1.51
  -4   4  -5    8.26    2.25
  -4  -4   5    7.11    1.29
   4   4  -5    8.50    2.52
  -4  -4  -5    7.02    2.08
  -4   4   5   10.39    2.33
  -4   4   5   10.62    1.83
   4   4   6  254.56   11.50
  -4   4  -6  282.93   12.61
   4  -4  -6  268.29   10.99
  -4  -4   6  236.69   12.14
  -4  -4   6  245.43   10.09
  -4  -4  -6  241.53   13.85
  -4   4   6  248.67   13.97
   4   4   7   66.08   10.40
  -4  -4   7   65.55    3.22
  -4   4  -7   96.05   14.52
  -4  -4   7   70.96    4.49
   4  -4  -7   63.12    3.35
  -4  -4  -7   90.94   11.39
  -4   4   7  113.33   12.35
   4  -4   7   73.44    4.80
   4   4  -7   80.20    9.30
  -4   4   7   80.12    9.15
   4   4   8   24.07    3.97
  -4  -4   8   15.78    2.92
  -4   4  -8   26.18    4.70
  -4  -4   8   19.47    2.91
  -4   4   8   24.73    5.50
   4   4  -8   24.35    5.70
   4  -4   8   19.47    4.18
  -4  -4  -8   24.58    4.14
  -4   4   8   21.90    2.64
   4   4   9  172.10    9.76
  -4   4  -9  265.27   16.59
  -4  -4   9  189.40    9.91
  -4  -4   9  203.69   11.45
  -4   4   9  191.56   10.22
   4  -4   9  211.71   11.92
  -4  -4  -9  192.74   11.03
  -4   4   9  187.46   10.52
   4   4  10  154.43    9.59
  -4  -4  10  162.70   13.09
  -4  -4  10  157.06    8.45
  -4   4  10  166.17    9.58
   4   4 -10  189.28   10.67
   4  -4  10  177.65   10.24
  -4  -4 -10  158.09    9.95
  -4   4  10  179.36   20.48
   4   4  11    1.56    0.93
  -4  -4  11    2.25    0.77
  -4   4 -11    3.78    1.93
  -4  -4  11    2.35    1.31
   4  -4 -11    3.17    1.06
  -4  -4 -11    3.48    1.84
  -4   4  11    2.70    0.84
   4  -4  11    4.77    1.22
   4   4 -11    4.66    1.33
  -4   4  11    4.18    1.16
   4   4  12    1.97    1.32
  -4   4 -12    2.65    1.75
  -4  -4  12    4.38    1.31
   4  -4 -12    1.86    0.91
  -4  -4  12    2.09    0.65
  -4   4  12    1.11    0.66
   4  -4  12    2.65    1.57
  -4  -4 -12    0.84    0.78
  -4   4  12    5.23    1.25
   4   4  13  152.41    9.10
  -4  -4  13  163.25   14.37
  -4   4 -13  178.91   13.76
  -4  -4  13  168.71   16.51
   4  -4 -13  178.86    9.93
  -4  -4 -13  164.45   12.41
  -4   4  13  154.09    8.12
   4  -4  13  157.48   13.10
   4   4 -13  152.41    8.39
  -4   4  13  179.56   22.75
   4   4  14    7.53    1.46
  -4  -4  14   11.28    2.44
  -4   4 -14   14.44    3.33
   4  -4 -14    9.63    2.61
  -4  -4  14   16.74    2.45
   4   4 -14   11.23    2.21
   4  -4  14   17.14    3.04
  -4  -4 -14   13.32    2.64
  -4   4  14   10.00    2.32
   4   4  15  174.36   14.37
  -4  -4  15  199.37   15.81
  -4   4 -15  204.20   16.59
   4  -4 -15  199.93   15.96
  -4  -4  15  208.17   16.97
   4   4 -15  197.29   16.65
   4  -4  15  210.93   17.75
  -4  -4 -15  196.25   17.91
   4   4  16  120.37    8.91
  -4  -4  16  134.35    9.35
  -4   4 -16  134.96   19.26
   4  -4 -16  132.19   17.63
  -4  -4  16  161.79   20.80
   4   4 -16  140.77   10.11
   4  -4  16  143.54   19.26
  -4  -4 -16  143.54   12.12
  -4   4  16  161.35   19.53
  -4  -4  17   18.18    3.11
  -4   4 -17   12.70    2.87
   4  -4 -17   16.74    3.49
  -4  -4  17   13.20    3.09
   4   4 -17    9.92    2.84
   4  -4  17   17.29    3.36
   4   4  18    7.40    1.74
  -4  -4  18   14.24    3.29
   4  -4 -18    8.48    2.79
  -4  -4  18   11.98    1.86
   4   4 -18   10.37    2.32
   4  -4  18   14.42    3.26
  -4  -4 -18   13.72    2.34
  -4   4  18   11.60    2.78
   4   4  19    4.99    1.31
  -4   4 -19    5.99    1.40
   4  -4 -19    6.66    1.60
  -4  -4  19    4.45    1.07
   4  -4  19    6.40    1.83
  -4   4  19    9.42    2.19
   4   4  20    0.07    1.55
   4  -4 -20   -0.13    1.96
   4   4 -20    5.50    2.35
  -4  -4 -20    1.39    1.52
   4  -4  20    1.84    1.30
  -4   4  20    1.26    1.20
   4   4  21   59.36    9.81
  -4   4 -21   71.08   12.11
   4  -4 -21   66.61   15.91
  -4  -4  21   85.15    9.73
   4   4 -21   88.65   12.59
  -4  -4 -21   78.43    9.37
   4  -4  21   74.54   16.00
  -4   4  21   70.04   14.29
   4   4  22    0.98    0.95
  -4   4 -22   -0.04    2.13
   4  -4 -22    2.62    1.16
  -4  -4  22   -2.87    2.90
   4   4 -22    2.42    1.14
  -4  -4 -22   -0.12    2.78
   4  -4  22    1.19    1.47
  -4   4  22   -0.22    2.94
   4   4  23  130.60   14.74
  -4   4 -23  149.98   24.71
  -4  -4  23  182.67   39.05
   4  -4 -23  138.78   26.06
  -4  -4 -23  162.90   18.03
   4   4 -23  161.45   22.69
  -4   4  23  150.28   27.36
   4   4  24   33.81    7.39
  -4   4 -24   44.28    7.95
  -4  -4  24   44.24    7.54
   4  -4 -24   42.15    5.97
  -4  -4 -24   46.20    6.61
   4   4 -24   47.41   10.64
  -4   4  24   47.92    7.98
   4   4  25    0.57    0.96
  -4   4 -25    4.19    1.76
  -4  -4  25   -1.25    2.24
   4   4 -25    3.46    2.03
  -4  -4 -25    3.04    2.02
  -4   4  25    0.42    1.88
   4   4  26   12.11    4.81
  -4  -4  26   16.46    4.06
   4   4 -26   19.53    4.04
  -4  -4 -26   21.89    4.93
  -4   4  26   20.66    4.59
  -4   4 -27    7.08    3.39
  -4  -4  27   14.10    3.46
   4   4 -27   17.88    4.03
  -4  -4 -27   10.60    2.61
  -4   4  27   14.85    3.47
  -4   4 -28    6.59    3.22
  -4  -4  28    9.74    4.88
   4  -4 -28   12.07    2.76
  -4  -4 -28   11.09    3.04
   4   4 -28   12.89    3.00
  -4   4  28    6.64    3.36
   4  -4 -29   -2.75    2.34
  -4  -4  29    1.31    0.94
   4   4 -29    5.60    2.98
  -4  -4 -29    1.38    1.21
   4  -4  29   -1.36    2.21
  -4   4  29    3.48    2.22
   4  -4 -30    9.36    3.11
  -4  -4  30    5.99    3.15
   4   4 -30    7.66    4.02
  -4  -4 -30    7.99    3.86
   4  -4  30    6.84    3.39
  -4   4  30    6.61    3.56
   4   4 -31    5.37    2.84
  -4  -4 -31    5.73    2.98
  -4   4  31   10.00    3.51
   4   4 -32   11.76    2.77
  -4   4  32   11.52    4.35
  -4   4  33    4.81    2.32
  -4   4  34    5.05    2.15
   4   5   0   16.43    2.61
  -4   5   0   13.07    2.45
  -4  -5   0   14.39    2.26
   4  -5   0   14.02    4.51
   4   5   1   25.36    5.32
  -4   5  -1   24.65    4.79
   4  -5  -1   23.49    5.26
  -4  -5   1   26.23    5.21
   4   5  -1   23.88    4.57
  -4  -5  -1   25.60    3.97
  -4   5   1   19.12    2.03
   4  -5   1   27.94    5.99
   4   5   2   61.42   13.71
  -4   5  -2   61.79   15.75
   4   5  -2   48.61    9.83
  -4   5   2   48.09    3.82
  -4  -5  -2   61.52    9.26
   4   5   3  601.56   31.42
  -4  -5   3  598.18   30.46
  -4   5  -3  621.39   31.20
  -4  -5  -3  610.74   31.13
  -4   5   3  606.13   30.55
   4   5   4   34.12    6.67
  -4  -5   4   44.94    7.61
  -4   5  -4   40.31    8.76
   4  -5  -4   29.88    4.17
  -4   5   4   36.41    8.43
   4   5   5   88.18    7.76
  -4   5  -5   85.25    5.99
  -4  -5   5   95.06   15.44
   4  -5  -5   76.31   14.23
  -4  -5  -5   87.60    5.39
  -4   5   5   71.94    3.94
  -4   5   5  101.32   11.86
  -4   5  -6  483.68   24.39
   4  -5  -6  501.03   24.60
  -4  -5   6  496.00   25.16
  -4   5   6  486.16   24.43
  -4  -5  -6  501.36   29.26
  -4   5   6  509.44   26.00
   4   5   7   95.54   16.59
  -4   5  -7  103.14   16.44
   4  -5  -7   91.12   14.39
  -4  -5   7  111.93   15.44
  -4   5   7   96.76   18.92
  -4  -5  -7  110.93   17.24
   4  -5   7  113.38    7.38
   4   5   8  315.88   16.79
   4  -5  -8  336.98   17.04
  -4   5  -8  327.59   17.20
  -4  -5   8  337.94   17.83
  -4   5   8  293.41   14.98
   4   5  -8  311.86   16.09
  -4  -5  -8  321.84   17.04
  -4   5   8  324.34   17.24
   4   5   9   37.99    8.04
   4  -5  -9   34.67    6.40
  -4   5  -9   47.84    9.77
  -4  -5   9   48.88    8.81
  -4   5   9   43.49    8.71
   4   5  -9   37.75    9.25
   4   5  10   13.98    2.90
  -4  -5  10   11.55    2.33
  -4   5 -10   13.55    2.88
  -4  -5  10   16.02    2.55
   4  -5 -10    9.30    1.75
  -4  -5 -10   14.23    3.16
  -4   5  10   14.62    3.05
   4  -5  10   16.44    3.83
   4   5 -10   14.34    2.98
  -4   5  10   15.97    3.69
   4   5  11    8.17    1.43
  -4  -5  11    4.83    0.96
  -4   5 -11   11.38    2.88
  -4  -5  11    2.31    2.73
   4  -5 -11    6.17    1.33
  -4  -5 -11   11.63    2.26
  -4   5  11    8.19    1.33
   4  -5  11    8.90    1.86
   4   5 -11   10.16    1.85
  -4   5  11    9.19    2.43
   4   5  12   40.06    5.02
  -4   5 -12   41.72    8.38
   4  -5 -12   33.29    4.94
  -4  -5  12   38.66    6.23
  -4  -5  12   35.91    3.46
  -4   5  12   40.80    4.30
   4  -5  12   44.01    8.66
  -4   5  12   44.10    5.13
   4   5  13  153.06   13.10
  -4   5 -13  156.37   11.20
   4  -5 -13  123.18   16.57
  -4  -5  13  146.87   19.34
  -4  -5  13  129.95    8.71
  -4   5  13  150.94   11.26
   4  -5  13  135.48   15.09
  -4   5  13  137.46   10.07
   4   5  14  149.80   14.19
  -4  -5  14  161.97   19.51
  -4   5 -14  181.09   24.35
  -4  -5  14  146.32   13.49
   4   5 -14  146.28    9.94
   4  -5  14  149.55   10.73
  -4  -5 -14  152.72   14.66
   4   5  15    2.79    1.38
  -4   5 -15    5.02    3.31
  -4  -5  15    2.74    2.12
  -4  -5  15   -0.14    1.39
   4   5 -15    1.92    0.56
   4  -5  15    7.22    1.67
  -4   5  15    3.97    1.59
   4   5  16   41.09    8.54
  -4  -5  16   54.02    8.88
  -4   5 -16   73.83   15.95
  -4  -5  16   43.86    9.25
   4   5 -16   38.09    9.41
   4  -5  16   47.56   12.05
  -4  -5 -16   46.11   10.46
  -4   5  16   44.31    8.62
   4   5  17   35.96    9.72
  -4  -5  17   35.83    8.60
  -4   5 -17   48.42   10.43
   4  -5 -17   33.40    6.54
  -4  -5  17   43.49    5.28
   4   5 -17   38.15    9.34
   4  -5  17   39.22    7.69
  -4  -5 -17   37.02    7.48
  -4   5  17   39.26    7.24
   4   5  18  100.37   10.62
  -4  -5  18  119.80   12.52
   4  -5 -18  122.92    5.17
  -4  -5  18  116.73    7.47
   4   5 -18   94.24    5.80
   4  -5  18   99.02   21.31
  -4  -5 -18  115.18   15.00
  -4   5  18  121.65   15.65
   4   5  19   18.51    4.85
  -4   5 -19   25.60    6.26
   4  -5 -19   22.70    6.25
  -4  -5  19   27.81    6.29
  -4  -5  19   23.81    6.00
   4  -5  19   26.11    6.18
  -4   5  19   11.96    3.13
   4   5  20   98.07   16.17
   4  -5 -20  126.14   19.57
  -4  -5  20  113.44   11.66
   4  -5  20  114.95   18.94
  -4   5  20  104.21   14.22
   4   5  21    4.30    1.12
  -4   5 -21    5.38    3.12
  -4  -5  21    5.55    1.63
   4  -5 -21    8.36    2.22
  -4  -5 -21    9.12    2.53
   4   5 -21   11.46    5.16
  -4   5  21    6.57    2.07
   4   5  22    5.60    2.19
  -4   5 -22    3.90    1.70
   4  -5 -22    6.61    2.78
  -4  -5  22    2.58    1.16
   4   5 -22    5.24    1.73
  -4  -5 -22    4.86    2.04
   4  -5  22    5.73    1.79
  -4   5  22    3.99    1.76
   4   5  23   39.78    9.72
  -4   5 -23   40.54    7.37
   4  -5 -23   43.54    6.32
  -4  -5  23   45.98   10.25
   4   5 -23   45.96    8.91
  -4  -5 -23   53.62    9.47
   4  -5  23   54.73    9.07
  -4   5  23   45.84    9.61
   4   5  24   17.97    4.10
  -4   5 -24   17.48    4.57
   4  -5 -24   26.42    7.36
  -4  -5  24   20.88    5.99
   4   5 -24   18.89    4.62
  -4  -5 -24   25.55    4.67
   4  -5  24   26.86    6.49
  -4   5  24   19.38    3.82
   4   5  25    2.70    1.60
  -4   5 -25    4.23    1.77
   4  -5 -25    2.04    1.26
  -4  -5  25    3.22    1.42
   4   5 -25    5.66    2.75
  -4  -5 -25    6.94    3.97
   4  -5  25    6.94    3.04
  -4   5  25    1.07    1.46
   4  -5 -26   96.25   16.51
  -4  -5  26   88.01   17.51
   4   5 -26   88.78   16.40
  -4  -5 -26   98.76   21.41
   4  -5  26  126.77   22.71
  -4   5  26   89.14   18.88
  -4   5 -27   35.87    9.81
   4  -5 -27   42.51   10.75
  -4  -5  27   34.30    9.59
   4   5 -27   49.18   10.19
  -4  -5 -27   46.05   10.05
   4  -5  27   53.32   11.02
  -4   5  27   38.77    8.81
  -4   5 -28    7.95    3.95
   4  -5 -28   16.10    4.63
   4   5 -28   15.16    4.74
  -4  -5 -28   14.19    4.38
   4  -5  28   13.68    4.35
  -4   5  28   11.15    3.78
   4  -5 -29    7.39    2.79
   4   5 -29    4.80    2.79
  -4  -5 -29    3.90    2.52
   4  -5  29    6.71    3.02
  -4   5  29    5.71    3.46
   4  -5 -30   14.59    6.71
   4   5 -30   21.05    7.35
  -4  -5 -30   16.85    7.55
   4  -5  30   27.02    7.62
  -4   5  30   16.00    6.43
   4  -5 -31   27.88    6.55
  -4  -5 -31   30.73    9.84
   4  -5  31   33.33    8.73
  -4   5  31   23.01    7.83
  -4   5  32   80.36   24.57
   4   6   0  281.14   15.10
  -4   6   0  254.71   13.75
  -4  -6   0  264.54   15.25
   4   6   1   30.76    6.11
  -4  -6   1   34.12    6.33
  -4   6  -1   32.64    9.18
   4   6  -1   31.42    6.57
  -4  -6  -1   30.46    5.90
  -4   6   1   29.54    6.66
  -4  -6   2  436.55   24.12
  -4   6  -2  439.59   22.45
   4   6  -2  479.56   24.31
  -4  -6  -2  426.41   22.11
  -4   6   2  422.62   21.90
  -4  -6   3  303.30   24.05
  -4   6  -3  281.50   23.34
   4  -6  -3  342.59   27.20
   4   6  -3  304.92   23.85
  -4  -6  -3  291.18   28.83
  -4   6   3  278.74   21.97
   4   6   4   13.93    2.40
  -4  -6   4   15.01    2.53
  -4   6  -4   10.02    2.82
   4   6  -4   14.77    3.68
  -4  -6  -4   18.51    2.68
  -4   6   4   12.50    3.53
   4   6   5   53.13   11.61
  -4  -6   5   66.76   10.72
  -4   6  -5   83.14   15.03
  -4  -6  -5   78.44   12.70
  -4   6   5   85.71    9.56
   4   6   6   35.16    8.30
  -4  -6   6   34.44    5.34
  -4   6  -6   37.91    5.86
   4   6  -6   31.31    6.29
  -4  -6  -6   37.14    6.04
  -4   6   6   28.21    5.09
   4   6   7   25.34    6.07
  -4  -6   7   14.62    2.32
  -4   6  -7   22.08    4.10
   4  -6  -7   15.31    3.89
  -4   6   7   19.25    5.04
   4  -6   7   23.87    4.80
  -4   6   7   22.87    3.15
   4   6   8   40.21    8.30
   4  -6  -8   32.34    6.62
  -4  -6   8   42.49    5.55
  -4   6  -8   39.31    6.30
   4   6  -8   35.53    6.27
  -4   6   8   36.98    6.35
   4  -6   8   41.81    8.02
  -4   6   8   40.48    5.42
   4   6   9  105.70    8.61
   4  -6  -9  107.49   12.51
  -4   6  -9  117.78   18.45
  -4  -6   9  108.09   16.29
  -4   6   9  116.26   13.07
   4   6  -9  100.03    7.58
  -4  -6  -9  132.18   20.05
  -4   6   9  123.04   16.85
   4   6  10   45.73    8.52
   4  -6 -10   48.65    6.15
  -4   6 -10   59.18   10.97
  -4   6  10   48.85    8.04
   4   6 -10   55.98   11.93
  -4   6  10   56.07    9.70
   4   6  11  266.18   27.65
   4  -6 -11  268.15   18.26
  -4  -6  11  272.69   18.27
  -4   6 -11  262.84   17.37
   4   6 -11  276.42   17.90
  -4   6  11  262.41   16.74
   4  -6  11  273.14   19.60
   4   6  12   39.95    8.34
   4  -6 -12   35.73    7.67
  -4   6 -12   37.25    6.27
  -4  -6  12   39.79    5.26
  -4   6  12   30.27    7.15
   4   6 -12   47.13   11.46
  -4  -6 -12   40.49    5.53
   4  -6  12   42.75    6.97
   4   6  13    0.17    0.74
  -4   6 -13    0.81    1.41
   4  -6 -13    3.10    1.17
  -4  -6  13   -0.30    2.06
  -4   6  13    1.58    0.54
   4  -6  13    3.06    1.40
  -4   6  13    4.63    1.60
   4   6  14  156.09   21.76
  -4  -6  14  150.55    6.07
  -4   6 -14  166.44   12.05
   4  -6 -14  138.76   18.78
   4   6 -14  149.28    5.07
   4  -6  14  159.66   14.93
  -4   6  14  147.91    6.53
   4   6  15  167.99   21.09
  -4  -6  15  171.65   20.39
  -4   6 -15  166.67   22.57
   4  -6 -15  153.35    5.03
   4   6 -15  169.38    5.38
   4  -6  15  166.10   19.59
  -4   6  15  162.16   14.88
   4   6  16   22.58    5.02
  -4   6 -16   16.81    4.23
   4  -6 -16    8.64    2.05
   4   6 -16   18.40    4.03
   4  -6  16   20.63    4.28
   4   6  17   21.19    5.14
  -4   6 -17   26.50    7.19
   4  -6 -17   19.68    4.91
  -4  -6  17   14.24    3.47
   4   6 -17   16.68    5.17
   4  -6  17   26.51    6.94
  -4   6  17   20.60    5.29
   4   6  18   45.50    9.86
  -4   6 -18   49.87    9.86
   4  -6 -18   43.38    8.24
   4   6 -18   35.00    7.72
   4  -6  18   48.10    9.22
   4   6  19    1.16    0.71
   4  -6 -19    3.24    1.32
  -4  -6  19    1.98    1.55
  -4  -6 -19    4.38    2.51
   4  -6  19    5.38    1.54
  -4   6  19    3.21    1.16
   4   6  20    1.79    1.10
  -4   6 -20    3.96    2.01
   4  -6 -20    4.93    2.03
  -4  -6  20    3.06    1.63
   4  -6  20   14.88    9.07
  -4   6  20    3.39    1.35
   4   6  21   13.85    3.74
  -4   6 -21   14.37    3.80
   4  -6  21   16.73    4.78
  -4   6  21   10.45    3.15
   4   6  22   26.00    6.37
  -4   6 -22   33.53    7.78
  -4  -6 -22   32.74    7.52
   4  -6  22   32.10    6.79
  -4   6  22   23.31    5.65
   4   6  23   32.59    6.40
  -4   6 -23   29.25    7.01
   4   6 -23   28.89   12.35
  -4  -6 -23   33.80   14.53
   4  -6  23   42.89    9.39
  -4   6  23   36.72    5.75
   4   6  24    5.82    2.70
  -4   6 -24    7.73    3.84
   4  -6 -24    6.78    3.26
   4   6 -24    6.81    2.83
  -4  -6 -24   11.33    3.48
   4  -6  24   13.05    2.85
  -4   6  24    9.54    2.49
  -4   6 -25   12.89    4.14
   4  -6 -25   13.13    3.24
   4   6 -25   17.03    4.49
  -4  -6 -25   16.14    5.20
   4  -6  25   19.85    4.55
  -4   6  25   10.71    3.02
   4  -6 -26   54.51   14.11
   4   6 -26   51.17   14.49
  -4  -6 -26   52.14   14.56
   4  -6  26   68.43   13.80
  -4   6  26   50.98   13.55
  -4   6 -27   13.85    5.08
   4  -6 -27   18.29    5.19
   4   6 -27   32.12    7.46
  -4  -6 -27   23.34    7.06
   4  -6  27   29.77   13.91
  -4   6  27   20.42    5.94
   4  -6 -28   10.80    4.23
   4   6 -28   11.94    4.37
  -4  -6 -28   11.19    4.55
   4  -6  28   14.60    5.61
  -4   6  28   13.11    5.43
   4   6 -29   -2.56    2.15
  -4  -6 -29    0.36    1.95
   4  -6  29    3.91    2.84
  -4   6  29    3.78    1.90
  -4  -6 -30   19.46    5.18
   4  -6  30   30.01    8.08
  -4   6  30   21.66    7.29
  -4   6  31   27.94   10.32
   4   7   0   81.71   16.07
  -4   7   0   92.49    9.53
  -4  -7   0   79.41   12.51
   4   7   1   29.46    6.29
  -4  -7   1   25.24    4.93
  -4   7  -1   25.91    5.63
   4   7  -1   22.46    5.55
  -4  -7  -1   31.91    7.10
  -4   7   1   23.99    6.78
   4   7   2   28.82    6.05
  -4  -7   2   28.84    4.83
  -4   7  -2   32.70    6.43
   4   7  -2   26.27    4.94
  -4  -7  -2   32.69    6.42
  -4   7   2   36.07   11.51
   4   7   3   61.14   13.09
  -4  -7   3   73.58    9.57
  -4   7  -3   77.91   15.35
   4   7  -3   57.14   11.60
  -4  -7  -3   69.69    9.04
  -4   7   3   70.07    8.77
   4   7   4   86.19   16.00
  -4  -7   4   98.83   17.13
  -4   7  -4  126.23   19.88
   4   7  -4  115.95   19.80
  -4  -7  -4  108.75   17.43
  -4   7   4  112.72   14.86
   4   7   5  106.07   13.74
  -4  -7   5  113.47   20.62
  -4   7  -5  107.97   11.74
  -4  -7  -5  116.57   20.37
  -4   7   5  133.44   19.79
   4   7   6  137.57   14.83
  -4  -7   6  135.78   23.21
  -4   7  -6  153.73   21.67
  -4   7   6  132.83   15.30
   4   7  -6  143.78   15.85
   4   7   7  140.32   16.06
  -4   7  -7  149.32   15.86
  -4  -7   7  149.64   21.93
  -4   7   7  152.21   15.88
   4  -7   7  161.64   17.87
   4   7   8   88.83   15.83
  -4  -7   8  113.40   21.48
  -4   7  -8  125.89   14.97
   4   7  -8  105.18   11.59
  -4  -7  -8  123.05   19.00
  -4   7   8  118.27   18.10
   4  -7   8  119.45   21.85
   4   7   9   31.22    6.57
  -4  -7   9   31.54    6.57
  -4   7  -9   23.19    4.66
  -4   7   9   22.05    6.12
   4   7  -9   26.09    7.03
  -4   7   9   26.51    5.12
   4   7  10    4.65    1.63
  -4  -7  10    4.70    2.06
  -4   7 -10    4.54    2.03
  -4   7  10    4.19    1.33
   4   7 -10    8.14    1.82
  -4   7  10    3.64    1.27
   4   7  11  108.62   15.63
  -4   7 -11  115.16   11.66
   4   7 -11   95.59    6.01
  -4   7  11  102.21    6.53
   4  -7  11  111.53   17.97
   4   7  12   93.03   13.75
   4  -7 -12   90.00   15.48
  -4   7 -12  100.91   17.66
  -4   7  12   92.15   10.60
   4   7 -12  106.13   14.86
   4  -7  12  116.07   15.71
  -4   7  12  101.31   15.28
   4   7  13  145.95   16.40
  -4   7 -13  163.13   15.95
   4  -7 -13  156.27   15.48
   4  -7  13  176.43   17.21
  -4   7  13  147.59   19.98
   4   7  14   81.51   15.80
  -4   7 -14   74.44   13.69
   4  -7 -14   65.35   10.12
  -4  -7  14   73.89   12.70
   4  -7  14   80.44   13.95
  -4   7  14   66.89   10.29
   4   7  15   63.64   13.66
  -4   7 -15   68.80   13.23
   4  -7 -15   57.58   11.52
   4   7 -15   65.63   10.74
   4  -7  15   74.76   13.63
  -4   7  15   69.48    9.57
   4   7  16   21.68    4.86
  -4   7 -16   19.99    5.56
   4  -7 -16   19.17    5.14
   4   7 -16   19.76    4.54
   4  -7  16   27.53    5.60
  -4   7  16   22.78    5.65
   4   7  17   17.94    4.75
  -4  -7  17   23.86    4.37
  -4   7 -17   22.98    4.48
   4  -7 -17   17.05    4.50
   4   7 -17   19.41    5.29
   4  -7  17   28.26    6.07
  -4   7  17   23.06    5.04
   4   7  18   99.09   14.29
  -4  -7  18  101.80   14.03
  -4   7 -18  103.22   20.27
   4  -7 -18   86.47   14.71
   4   7 -18   82.68   15.96
   4  -7  18  111.08   20.01
  -4   7  18   94.09   18.53
   4   7  19   12.98    2.75
   4  -7 -19    8.08    3.18
  -4  -7  19   12.14    5.23
   4  -7  19   14.19    3.56
  -4   7  19   12.38    2.68
   4   7  20   18.72    4.29
  -4   7 -20   16.88    3.73
   4  -7 -20   15.24    3.88
  -4  -7  20   16.67    4.13
   4  -7  20   17.30    4.57
  -4   7  20   17.99    4.85
   4   7  21   10.71    2.65
   4  -7 -21    8.92    3.95
  -4  -7  21   11.97    3.07
  -4  -7 -21   19.09    4.94
   4  -7  21   11.84    3.18
  -4   7  21   10.22    2.94
   4   7  22   32.41    6.83
  -4   7 -22   56.65   15.08
   4  -7 -22   32.20    8.32
  -4  -7 -22   39.92   11.15
   4  -7  22   50.18    9.92
  -4   7  22   41.79    8.77
   4   7  23   20.38    4.23
  -4   7 -23   25.71    7.32
   4  -7 -23   15.27    3.55
  -4  -7 -23   20.75    4.54
   4  -7  23   28.71    6.09
  -4   7  23   18.90    4.47
  -4   7 -24   31.98    8.29
  -4  -7 -24   25.17    7.76
   4  -7  24   47.18    9.62
  -4   7  24   22.56    7.46
  -4   7 -25   58.17   20.58
   4   7 -25   60.17   21.28
  -4  -7 -25   63.43   19.61
   4  -7  25   86.96   26.76
  -4   7  25   60.37   19.38
  -4  -7 -26   24.04    9.70
  -4   7  26   13.19    5.47
  -4  -7 -27   14.01    5.31
  -4   7  27   19.45    6.06
  -4  -7 -28    4.58    2.39
   4  -7  28    2.28    3.47
  -4   7  28    3.93    2.26
   4  -7  29    1.96    3.36
   4   8   0   32.25    6.24
  -4   8   0   27.97    5.25
  -4  -8   0   30.72    6.54
   4   8   1   47.43    7.38
  -4   8  -1   48.52    6.11
   4   8  -1   43.38    9.12
  -4   8   1   62.97    6.10
   4   8   2   21.01    4.20
  -4   8  -2   18.04    4.46
   4   8  -2   19.60    4.59
  -4   8   2   20.03    5.58
   4   8   3    9.18    2.51
  -4  -8   3    9.90    2.34
  -4   8  -3    7.69    3.04
   4  -8  -3    5.61    1.67
   4   8  -3    8.02    2.60
  -4  -8  -3    7.25    2.50
  -4   8   3    5.27    1.91
   4   8   4  122.98   20.99
  -4   8  -4  142.56   14.97
   4   8  -4  137.29   18.25
  -4   8   4  157.21   17.69
  -4  -8  -4  132.46   22.89
   4   8   5   16.04    4.74
  -4   8  -5   11.80    4.03
  -4   8   5    8.71    2.68
   4   8   6   18.60    4.86
  -4   8  -6   21.85    5.27
  -4   8   6   17.42    4.63
  -4  -8  -6   16.72    4.74
   4  -8   6   22.90    5.10
   4   8   7   22.80    5.44
  -4   8  -7   20.42    4.65
  -4   8   7   21.33    5.86
   4  -8   7   27.18    5.99
   4   8   8   10.25    2.77
  -4  -8   8   11.59    3.49
  -4   8  -8    8.59    2.69
  -4   8   8    9.35    3.50
   4   8  -8   10.54    3.79
   4  -8   8   16.50    4.41
   4   8   9   63.73   10.74
  -4   8  -9   69.05   14.70
   4   8  -9   71.98   11.81
  -4   8   9   62.61   11.53
   4  -8   9   78.41   15.65
   4   8  10   81.03   13.51
   4  -8 -10  569.29  119.33
  -4   8 -10   77.90   13.09
   4   8 -10   69.31   16.64
  -4  -8 -10   79.23   16.46
  -4   8  10   77.06   10.04
   4  -8  10   95.67   17.53
   4   8  11   29.60    5.61
   4  -8 -11    3.89    5.86
  -4   8 -11   28.17    6.76
  -4   8  11   22.78    5.43
   4   8 -11   21.51    5.13
   4  -8  11   39.23    7.21
   4   8  12    3.24    1.54
  -4  -8  12    2.47    1.40
  -4   8 -12    3.11    1.93
   4   8 -12    2.82    1.66
  -4  -8 -12    4.00    1.68
  -4   8  12    1.25    0.76
   4  -8  12    5.94    2.33
  -4   8  12    2.74    1.62
   4   8  13    0.62    0.90
  -4   8 -13    1.44    0.94
  -4  -8  13    0.51    1.36
   4   8 -13    1.54    1.29
   4  -8  13    8.25    2.46
  -4   8  13    2.27    1.32
   4   8  14   49.30    8.19
  -4   8 -14   54.53   10.34
  -4  -8  14   49.50    6.51
   4  -8  14   66.35   10.36
   4   8  15  114.60   16.95
  -4   8 -15  119.42   17.23
  -4  -8  15  124.35   20.52
   4   8 -15  111.33   13.52
   4   8  16   21.76    4.38
  -4   8 -16   24.28    8.18
  -4  -8  16   24.13    6.07
   4   8 -16   18.43    5.83
   4   8  17    9.91    2.42
  -4  -8  17   10.37    3.07
  -4   8 -17   10.49    3.17
  -4  -8 -17   14.38    4.06
   4   8 -17   10.03    2.68
   4  -8  17   14.09    3.55
  -4   8  17    9.27    4.10
   4   8  18    3.06    1.92
  -4   8 -18    8.44    3.36
  -4  -8  18    8.27    3.38
   4  -8  18    5.79    2.43
  -4   8  18    3.84    1.75
   4   8  19   18.28    5.96
  -4   8 -19   19.13    5.98
  -4  -8  19   19.77    4.86
  -4  -8 -19   17.10    5.07
   4  -8  19   25.96    5.88
  -4   8  19   13.95    4.02
   4   8  20    9.38    4.06
  -4  -8  20   10.22    5.18
  -4  -8 -20    9.03    4.45
   4  -8  20   21.81    5.27
   4   8  21   15.86    5.77
  -4  -8  21   21.65    6.53
  -4  -8 -21   25.07    7.49
   4  -8  21   21.93    6.32
  -4   8 -22   33.30   11.17
  -4  -8 -22   30.07   14.68
   4  -8  22   43.71   10.35
  -4   8 -23   37.98   13.38
  -4  -8 -23   33.97   11.56
   4  -8  23   45.22   13.17
  -4   8 -24   14.33    5.93
  -4  -8 -24    5.62    3.08
   4  -8  24   13.30    5.23
  -4  -8 -25    4.52    1.88
   4  -8  25    5.21    2.23
  -4   8  25    5.87    2.97
  -4  -8 -26   31.71   10.23
   4  -8  26   49.23   12.60
  -4   8  26   21.93    6.75
   4  -8  27   12.34    3.49
   4   9   0   25.36    5.28
  -4   9   0   25.91    5.40
   4   9   1   42.46    9.14
  -4   9  -1   35.79    4.56
   4   9  -1   37.35    7.08
  -4   9   1   39.77   10.15
   4   9   2   38.04    6.92
  -4  -9   2   43.44    8.12
  -4   9  -2   36.95    4.19
   4   9  -2   34.64    6.85
  -4  -9  -2   35.11    7.73
  -4   9   2   35.87    7.93
   4   9   3   23.30    5.63
  -4   9  -3   27.27    8.39
   4   9  -3   25.65    6.01
  -4   9   3   26.87    7.78
  -4  -9  -3   25.97    6.92
   4   9   4   15.07    4.83
  -4   9  -4    9.43    2.97
   4   9  -4   11.33    3.15
  -4   9   4   12.13    3.82
  -4  -9  -4   11.50    3.48
   4   9   5   43.31    7.52
  -4   9  -5   51.19    8.11
   4   9  -5   44.24    8.43
  -4   9   5   50.29    6.69
  -4  -9  -5   36.70    8.14
   4  -9   5   64.01   11.93
   4   9   6   51.41    8.63
  -4   9  -6   62.37   12.00
  -4   9   6   57.48   11.17
  -4  -9  -6   61.76   10.33
   4  -9   6   72.85   13.51
   4   9   7   67.62   11.64
  -4   9  -7   72.67   10.87
   4   9  -7   61.92   16.40
  -4   9   7   66.74    5.84
   4  -9   7   97.95   15.45
   4   9   8   47.52    7.11
  -4   9  -8   49.10   10.10
  -4   9   8   40.55    9.36
   4  -9   8   48.91    5.65
   4   9   9   14.42    4.07
  -4   9  -9   19.71    4.45
  -4  -9   9   20.07    4.92
  -4   9   9   14.49    4.58
   4  -9   9   24.64    5.40
   4   9  10    0.65    1.28
  -4  -9  10    3.39    1.49
  -4   9 -10    2.57    1.91
  -4   9  10    2.88    1.29
   4   9 -10    4.63    1.91
   4  -9  10    3.63    2.04
   4   9  11   54.57   13.15
  -4   9 -11   83.01   17.67
  -4  -9  11   70.45   14.75
   4   9 -11   62.95   13.46
   4  -9  11   86.64   14.34
   4   9  12    6.67    3.41
  -4   9 -12    9.74    2.74
  -4  -9  12    6.00    2.40
   4   9 -12    8.75    3.69
   4  -9  12    9.09    4.05
   4   9  13  115.33   23.72
  -4   9 -13  124.11   23.04
  -4  -9  13  111.95   24.40
   4   9 -13  124.79   19.40
   4  -9  13  154.93   24.20
   4   9  14   20.54    5.23
  -4   9 -14   20.59    5.10
  -4  -9  14   22.69    5.42
   4  -9 -14   16.72    8.01
   4   9  15   14.18    3.51
  -4   9 -15   18.50    5.87
  -4  -9  15   10.87    3.69
   4   9 -15   14.70    3.84
  -4   9  15   15.55    5.34
   4   9  16   51.45   11.70
  -4   9 -16   53.42   13.74
  -4  -9  16   50.37   15.16
  -4   9  16   47.79   13.38
   4   9  17   -0.15    1.17
  -4   9 -17    0.90    1.82
  -4  -9  17    1.13    1.42
   4  -9  17   11.86    4.02
  -4   9  17    3.58    2.65
   4   9  18   50.98   14.90
  -4   9 -18   61.04   19.10
  -4  -9 -18   69.89   18.99
   4  -9  18  100.18   25.19
   4   9  19   14.29    5.33
  -4   9 -19   18.03    7.43
   4  -9  19   29.41    8.34
  -4  -9 -20  111.05   27.30
  -4   9 -21   32.15   12.61
   4  -9  21   50.72   12.76
  -4   9 -22    8.81    4.09
   4  -9  22   18.95    4.42
  -4  -9 -23   15.79    5.52
   4  -9  23   24.12    6.06
   4  -9  24    3.64    5.46
   4  10   0    5.11    2.97
  -4  10   0    1.55    1.63
  -4 -10   0    2.74    3.06
   4  10   1   16.67    4.14
  -4  10  -1   22.67    5.26
   4  10  -1   18.91    4.54
  -4  10   1   11.74    4.38
   4  10   2  194.82   23.34
  -4  10  -2  219.26   86.42
   4  10  -2  172.19   31.73
  -4  10   2  209.80   83.00
   4  10   3   27.08    6.34
  -4 -10   3   17.70    6.61
  -4  10  -3   24.61    4.91
  -4  10   3   22.83    6.01
   4  10  -3   20.39    5.78
   4  10   4   26.27    5.28
  -4 -10   4   22.76    6.65
  -4  10  -4   27.59    6.73
   4  10  -4   25.59    7.97
  -4 -10  -4   28.57    8.01
  -4  10   4   27.19    7.10
   4 -10   4   31.57   14.61
   4  10   5    7.69    3.67
  -4 -10   5    5.53    3.62
  -4  10  -5    8.05    3.72
  -4  10   5    5.80    2.89
   4  10  -5    6.71    3.33
   4 -10   5    8.48    3.68
   4  10   6   52.93   11.33
  -4  10  -6   47.53   10.81
  -4  10   6   47.22   13.71
   4 -10   6   62.87   12.55
   4  10   7    4.33    2.36
  -4 -10   7    8.20    3.77
  -4  10  -7    5.44    3.60
  -4  10   7    1.69    1.25
   4  10  -7    6.90    3.40
   4 -10   7   10.05    4.82
   4  10   8    3.45    2.04
  -4  10  -8   -0.08    2.44
   4 -10   8    5.92    3.07
   4  10   9   62.28   13.51
  -4  10  -9   80.10   19.96
   4  10  -9   67.65   16.28
   4 -10   9   90.18   17.64
   4  10  10   42.71   10.65
  -4  10 -10   44.23   12.46
   4  10 -10   38.52   12.62
   4 -10  10   61.58   12.65
   4  10  11   22.96    6.68
  -4  10 -11   28.14    9.49
  -4 -10  11   25.74    9.02
   4  10 -11   27.88    9.56
   4 -10  11   36.68    8.56
   4  10  12    1.67    1.48
   4 -10 -12    1.93    1.99
  -4  10 -12    1.27    1.70
  -4 -10  12   -0.42    1.83
   4  10 -12    3.65    1.92
   4  10  13   47.48   12.76
  -4  10 -13   46.51   12.77
   4 -10 -13    0.29    1.20
   4  10  14   24.08    8.92
  -4  10 -14   23.19    9.63
  -4 -10 -14   24.23   10.02
   4 -10  14   27.57    7.75
   4  10  15    6.71    3.06
  -4  10 -15    3.67    2.20
   4 -10 -15    2.53    2.25
   4 -10  15    6.43    2.67
   4  10  16   16.39    6.08
  -4  10 -16   17.41    8.29
  -4 -10 -16   22.37    8.05
   4 -10  16   35.52    9.88
  -4  10 -17   21.72    7.14
   4 -10 -17   -2.86    5.37
  -4 -10 -17   25.06    8.74
  -4  10 -18    6.25    3.07
  -4  10 -19    0.58    1.66
  -4 -10 -19    3.12    4.68
   4 -10  19    4.73    1.89
  -4 -10 -20    2.34    3.57
   4  11   0    8.88    3.72
  -4  11   0    8.47    3.52
   4  11   1   18.99    7.30
  -4  11  -1   18.48    7.34
   4  11  -1   21.01    8.20
  -4  11   1   15.54    7.96
   4  11   2   12.92    4.66
  -4 -11   2    9.79    5.65
  -4  11  -2    9.01    3.93
  -4  11   2   12.38    4.61
   4  11  -2   10.32    3.91
   4 -11   2   15.70    5.71
   4  11   3    5.74    3.00
  -4  11  -3    4.46    2.96
   4  11  -3    4.61    2.66
  -4  11   3    3.04    2.56
  -4 -11  -3    3.19    2.34
   4  11   4   10.77    4.28
  -4  11  -4    7.65    3.15
   4  11  -4   10.21    4.10
  -4  11   4    6.39    2.30
   4  11   5   34.29   10.90
  -4  11  -5   33.33   12.51
  -4 -11   5   27.51   11.54
   4  11  -5   27.16   11.17
   4 -11   5   49.11   14.50
   4  11   6    6.38    3.37
  -4  11  -6    7.61    3.28
   4  11  -6    9.60    3.59
   4 -11   6    9.90    3.57
   4  11   7    9.79    3.66
  -4  11  -7    9.78    4.51
  -4 -11  -7   12.56    5.09
   4 -11   7   16.34    5.92
   4  11   8    0.53    1.75
  -4  11  -8    2.99    2.11
   4 -11   8    2.57    2.13
   4  11   9    2.55    1.61
  -4  11  -9    0.01    1.70
   4 -11   9   -2.81    2.31
   4  11  10   64.77   20.19
  -4  11 -10   68.15   23.31
   4  11 -10   48.23   15.77
   4 -11  10  107.20   24.04
   4  11  11   27.42   10.14
  -4  11 -11   33.91   11.67
   4  11  12   13.07    4.97
  -4  11 -12   14.78    4.47
  -4  11 -13   26.73   12.32
  -4  11 -14   17.70    5.92
  -4  11 -15    9.43    3.11
   4  12   0   13.41    4.25
   4  12   1    1.69    3.01
   4  12  -1   -1.73    2.19
   4  12   2   18.35    5.37
   4  12  -2   10.70    5.18
   4  12   3   20.30    5.35
   4  12  -3   13.47    5.16
   4  12   4    3.25    5.16
   4  12  -4    5.68    3.45
  -5   0   0    2.09    1.24
  -5   0   0    3.61    1.29
   5   0   0    1.17    0.66
  -5   0  -1   52.64    8.39
  -5   0   1   45.84    7.84
  -5   0  -1   47.24    7.65
  -5   0   1   45.80    8.47
   5   0  -1   57.41    6.72
  -5   0  -2   -0.12    1.64
  -5   0   2    0.40    0.50
  -5   0  -2    0.23    0.79
  -5   0   2   -0.26    1.41
   5   0  -2    3.18    2.49
  -5   0  -3    2.89    1.17
  -5   0   3   -0.14    1.11
  -5   0  -3   -1.00    1.21
  -5   0   3   -0.10    1.43
  -5   0   3    1.12    0.89
  -5   0  -4    0.44    1.69
  -5   0   4    1.38    0.81
  -5   0  -4    0.88    0.95
  -5   0   4    2.08    1.00
  -5   0   4    2.27    1.42
  -5   0  -5    6.20    1.16
  -5   0   5    5.76    1.20
  -5   0  -5    6.66    1.15
  -5   0   5    5.96    2.15
  -5   0   5    7.63    1.61
  -5   0  -6    1.84    0.83
  -5   0  -6    4.35    1.07
  -5   0   6    2.45    0.75
   5   0   6    3.75    0.88
  -5   0   6    4.27    1.05
   5   0  -7   91.22    4.68
  -5   0  -7   94.39    5.98
  -5   0  -7   99.26    5.51
  -5   0   7   99.38    5.02
  -5   0   7   94.63    4.67
  -5   0  -8   74.41   11.38
  -5   0  -8   67.12    9.93
  -5   0   8   67.19   10.57
  -5   0   8   64.31    9.24
  -5   0  -9  194.22   11.06
  -5   0  -9  179.50   12.64
  -5   0   9  177.88   10.41
  -5   0   9  170.09    9.68
   5   0 -10   89.67    6.04
  -5   0 -10  119.30   14.31
  -5   0 -10   88.06    6.25
  -5   0  10  111.80   14.93
   5   0  10  101.34    9.97
   5   0 -11    2.27    1.25
  -5   0 -11    2.69    1.13
   5   0  11    1.92    1.09
  -5   0  11    1.33    1.22
   5   0 -12   21.27    4.06
  -5   0 -12   20.53    4.13
   5   0  12   18.66    3.99
  -5   0  12   45.06    8.33
   5   0 -13    6.01    1.42
  -5   0 -13    5.82    1.95
  -5   0 -13    6.06    1.74
   5   0  13    6.10    1.63
  -5   0  13    5.95    1.38
   5   0 -14    3.07    0.61
  -5   0 -14    2.81    1.15
  -5   0 -14    2.50    0.89
  -5   0  14    3.00    0.92
  -5   0 -15  271.67   21.70
  -5   0 -15  258.18   20.30
   5   0  15  257.68   20.18
  -5   0  15  269.43   28.26
  -5   0 -16    3.54    1.43
   5   0 -16    3.25    1.39
  -5   0 -16    1.92    0.80
   5   0  16    2.36    1.06
  -5   0  16    5.79    1.94
  -5   0 -17  300.06   32.57
   5   0 -17  292.29   29.85
  -5   0 -17  282.53   28.87
   5   0  17  331.87   33.50
  -5   0  17  299.97   31.17
   5   0 -18    3.10    1.51
  -5   0 -18    0.85    1.43
  -5   0  18    2.63    1.24
   5   0 -19  233.25    7.33
  -5   0 -19  209.45    6.83
   5   0  19  223.28    6.80
  -5   0  19  217.77   11.07
   5   0 -20   13.93    2.69
  -5   0 -20   11.32    2.48
  -5   0  20    8.21    2.58
  -5   0 -21    5.97    2.29
   5   0 -21    8.66    3.07
  -5   0 -21    6.35    1.87
   5   0  21    6.56    2.05
  -5   0  21    4.56    1.44
  -5   0 -22    4.71    1.24
   5   0 -22    6.44    1.24
  -5   0 -22    5.27    1.48
   5   0  22    3.91    0.97
  -5   0  22    4.15    1.42
  -5   0 -23    3.11    2.51
   5   0  23    4.88    1.68
  -5   0  23    4.84    1.60
  -5   0 -24    3.09    1.58
   5   0 -24    4.86    1.36
   5   0  24    4.69    1.53
  -5   0  24    0.53    1.44
  -5   0 -25   97.01   18.43
   5   0 -25  127.07   18.02
   5   0  25  102.61   16.57
  -5   0  25  118.18   17.71
   5   0 -26   27.27    5.73
   5   0  26   21.58    6.35
  -5   0  26   29.59    6.66
  -5   0 -27    3.56    1.65
   5   0 -27   13.15    3.30
  -5   0  27    4.78    2.12
  -5   0 -28   24.04    7.71
   5   0 -28   37.39    9.36
  -5   0  28   31.26   15.65
   5   0 -29   50.31   15.03
  -5   0  29   40.05    9.35
   5   0 -30   22.67    8.24
  -5   0  30   23.20    9.52
   5   0 -31  209.36  303.01
  -5   0  31   87.88   30.33
   5   0 -32   -1.39    2.54
  -5   0  32    1.10    1.80
   5   0 -33    3.13    4.77
   5   1   0  114.53    6.29
  -5   1   0  124.17    6.78
  -5  -1   0  136.77   16.39
  -5   1   0  125.08    6.00
   5  -1   0  129.41    6.23
   5   1   0  125.64    5.62
  -5   1  -1   79.52    8.26
  -5   1  -1   79.65    7.69
  -5  -1   1   83.31   12.05
   5  -1  -1   99.19    5.76
  -5  -1  -1   75.86    7.52
  -5   1   1   81.74   14.74
  -5   1   1   76.19    8.49
   5   1  -1   83.88    7.94
   5  -1   1   78.50    7.72
  -5   1  -2  156.59    7.74
  -5  -1   2  142.38    7.38
   5   1   2  150.81    6.67
  -5  -1  -2  152.68    7.64
  -5  -1  -2  157.97    7.75
  -5   1   2  144.02    6.89
   5  -1   2  156.05    7.42
  -5   1   2  166.94   18.09
  -5   1  -3   80.89   14.29
  -5  -1   3   93.84    9.49
  -5   1  -3   80.42    9.15
  -5  -1   3   89.43   11.59
   5   1   3   88.72    8.48
  -5  -1  -3   81.08   14.78
  -5   1   3   80.95    8.02
   5  -1   3   88.61    8.66
  -5   1   3   97.54   13.64
  -5   1   3   84.01    9.78
  -5  -1   4  425.86   21.34
  -5   1  -4  439.42   22.96
   5   1   4  460.17   23.02
  -5  -1   4  442.13   22.66
  -5   1  -4  441.82   22.03
  -5  -1  -4  411.47   20.99
   5   1  -4  396.51   20.39
  -5   1   4  405.81   20.46
   5  -1   4  432.36   21.85
  -5   1   4  455.07   22.95
  -5  -1  -4  434.05   22.09
  -5   1   4  421.50   21.52
   5   1   5   32.34    5.75
  -5   1  -5   31.08    5.37
  -5  -1   5   30.02    4.55
  -5  -1   5   35.73    5.33
  -5  -1  -5   33.17    6.43
  -5  -1  -5   33.90    3.98
  -5   1   5   32.89    3.39
   5   1  -5   34.68    6.12
  -5   1   5   30.04    4.27
  -5   1   5   38.38    7.05
  -5  -1   6   40.04    8.41
  -5   1  -6   39.27    8.52
   5   1   6   39.29    6.88
  -5  -1   6   41.18    6.75
  -5   1  -6   30.86    4.72
  -5  -1  -6   41.14    5.83
   5   1  -6   36.24    7.58
  -5   1   6   37.33    6.03
   5  -1   6   41.42    7.81
  -5   1   6   38.26    4.43
  -5  -1  -6   40.20    6.22
  -5   1   6   43.58    7.71
  -5   1  -7    2.42    1.14
   5   1   7   -1.80    0.82
  -5  -1   7    1.96    0.41
   5  -1   7    4.16    1.58
  -5   1   7    1.61    0.74
  -5  -1  -7   -0.15    1.29
  -5   1   7    4.32    1.51
  -5  -1   8  617.51   31.14
  -5   1  -8  644.23   32.49
  -5  -1   8  583.11   29.39
  -5   1  -8  577.97   28.56
   5   1   8  624.40   31.12
   5   1  -8  633.50   31.58
  -5  -1  -8  595.41   30.33
  -5  -1  -8  594.58   31.37
   5  -1   8  636.52   31.71
  -5   1   8  616.37   30.53
  -5   1   8  599.73   30.12
  -5   1  -9   57.71   12.20
  -5  -1   9   77.58   12.13
  -5  -1   9   67.48   12.69
  -5   1   9   64.85    4.78
  -5  -1  -9   66.35   14.71
   5  -1   9   61.29    5.21
  -5  -1  -9   65.92   11.49
  -5   1   9   66.64    9.42
  -5  -1  10  382.21   21.42
  -5   1 -10  371.44   19.45
  -5  -1  10  339.65   18.48
  -5   1 -10  359.82   25.71
   5   1  10  398.10   19.95
   5   1 -10  382.20   19.48
  -5  -1 -10  371.71   19.63
  -5   1  10  359.72   18.07
   5  -1  10  382.39   19.60
  -5  -1 -10  367.70   19.79
  -5   1  10  361.04   19.55
   5   1  11   45.22    7.57
  -5   1 -11   37.84    7.93
  -5  -1  11   47.92    7.99
   5  -1 -11   42.37    9.61
  -5   1 -11   34.50    5.75
  -5  -1  11   37.83    5.39
   5  -1  11   43.82   10.46
   5   1 -11   43.78    6.37
  -5  -1 -11   41.63    8.77
  -5   1  11   48.16    8.43
   5  -1 -12  100.62    9.49
   5  -1 -12   96.30   13.92
  -5   1 -12  100.12    6.43
  -5  -1  12  102.79   14.22
  -5  -1  12  111.80    7.40
  -5   1 -12   93.33    6.01
   5   1  12  112.28    6.30
  -5  -1 -12   95.41    6.28
   5   1 -12   89.84   12.82
   5  -1  12  113.39    6.86
  -5  -1 -12  108.17   16.70
  -5   1  12  105.29   10.16
   5  -1 -13   82.70    8.42
   5   1  13  102.25    8.37
  -5   1 -13  106.64   18.73
  -5  -1  13  116.51   15.81
   5  -1 -13   98.49   17.48
  -5  -1  13   99.91    8.92
  -5  -1 -13   95.16   12.37
   5  -1  13  112.98    9.84
   5   1 -13  101.93    8.43
  -5  -1 -13  103.70   20.10
  -5   1  13  105.55   12.47
  -5  -1  14   42.82    6.15
  -5   1 -14   56.57   10.70
   5   1  14   47.69    7.75
  -5   1 -14   37.83    6.04
  -5  -1 -14   50.50    8.32
   5  -1  14   47.22    8.02
   5   1 -14   66.43   13.33
   5   1 -14   49.43    5.33
  -5   1  14   50.35    8.57
  -5   1 -15   25.93    6.21
  -5  -1  15   21.95    4.83
  -5   1 -15   18.13    4.73
  -5  -1 -15   23.35    6.95
  -5  -1 -15   19.16    4.05
  -5   1  15   21.21    3.74
  -5  -1  16  465.57   29.25
  -5   1 -16  494.91   40.58
  -5  -1 -16  462.57   28.97
  -5  -1 -16  517.60   42.79
  -5   1  16  493.74   40.93
   5  -1 -17   32.52    5.64
  -5   1 -17   27.67    4.69
  -5  -1  17   38.62    6.02
  -5  -1 -17   32.67    4.84
  -5   1  17   36.58    5.74
   5   1  18   29.60    5.57
   5  -1 -18   30.09    5.21
  -5  -1  18   33.71    4.12
  -5  -1 -18   30.66    3.96
  -5  -1 -18   29.27    5.71
  -5   1  18   35.21    6.86
  -5   1 -19   20.22    4.47
  -5  -1  19   20.04    3.77
   5   1  19   22.89    5.28
  -5  -1 -19   22.91    5.82
   5   1 -19   24.28    4.89
  -5   1  19   20.23    3.95
   5   1  20   93.91   10.97
  -5  -1  20   97.39    9.20
  -5  -1 -20   89.37    8.26
  -5  -1 -20   90.10   13.67
   5   1 -20   98.19    5.20
  -5   1  20   95.18   12.41
  -5   1 -21    3.06    1.53
  -5  -1  21    1.63    0.92
   5  -1 -21    3.90    1.68
   5   1  21    3.05    0.91
   5   1 -21    3.92    1.22
  -5  -1 -21    1.15    1.05
   5  -1  21    5.22    2.09
  -5  -1 -21    5.42    1.71
  -5   1  21    4.84    3.08
  -5   1 -22  110.49   18.56
   5  -1 -22  125.22   12.75
  -5  -1  22  108.06   19.14
   5   1  22   99.96   18.27
   5   1 -22   98.27   15.33
   5  -1  22  108.10   21.14
  -5  -1 -22  103.62   13.37
  -5   1  22  131.53   13.67
  -5   1 -23   13.95    4.47
  -5  -1  23   24.92    5.27
   5  -1 -23   16.45    4.84
  -5  -1 -23   15.84    4.04
   5   1 -23   20.27    5.79
  -5   1  23   19.36    5.02
   5   1  24   11.05    3.24
  -5   1 -24   15.54    5.63
   5  -1 -24   17.42    4.75
  -5  -1  24   11.45    3.30
   5   1 -24   16.73    4.23
  -5  -1 -24   11.65    2.98
   5  -1  24   16.64    4.55
  -5   1  24   16.37    4.77
   5   1  25    9.05    3.92
  -5   1 -25   16.38    3.92
   5  -1 -25   17.28    4.43
  -5  -1  25   16.54    3.71
   5   1 -25   16.68    4.96
  -5  -1 -25    9.83    3.59
   5  -1  25   16.41    4.25
  -5   1  25   14.24    3.15
   5   1  26    1.92    1.73
  -5  -1  26    2.01    1.17
   5  -1 -26    5.20    2.49
   5  -1  26    0.99    1.18
   5   1 -26    3.36    1.98
  -5   1  26    1.41    1.57
   5   1  27    3.10    1.56
  -5  -1  27    3.31    1.69
   5  -1 -27    5.29    2.53
   5  -1  27    1.55    1.14
   5   1 -27    5.55    2.66
  -5   1  27    3.60    1.88
   5   1  28    5.07    2.53
  -5   1 -28   12.01    3.56
  -5  -1  28   10.79    3.77
   5  -1 -28   18.96    4.51
   5  -1  28   11.31    3.40
   5   1 -28   12.80    3.24
  -5   1  28   12.90    3.90
   5  -1 -29   20.67    6.34
  -5  -1  29   14.96    4.66
   5   1 -29   17.27    5.33
  -5   1  29   18.14    5.35
   5  -1 -30   48.14   12.50
  -5  -1  30   44.31   13.25
   5   1 -30   57.06   16.23
  -5   1  30   40.01   11.81
   5  -1 -31   10.10    3.77
  -5  -1  31    7.65    3.48
   5   1 -31    5.52    3.16
  -5   1  31    9.57    4.22
   5  -1 -32    4.10    2.39
   5   1 -32    3.83    1.57
  -5   1  32    5.81    2.96
   5  -1 -33    9.89    3.03
   5   1 -33    9.78    3.10
   5   2   0  163.07   11.81
  -5   2   0  161.09    9.11
  -5   2   0  172.40    9.14
   5   2   1  262.57   14.26
  -5   2  -1  255.64   14.00
  -5   2  -1  271.35   14.05
   5   2   1  276.50   13.90
  -5  -2   1  265.45   14.89
   5  -2  -1  318.33   17.11
  -5   2   1  268.41   14.42
  -5   2   1  279.09   14.23
   5   2  -1  266.65   13.44
   5  -2   1  268.89   14.29
  -5  -2  -1  269.24   15.99
   5   2   2  116.97   21.09
  -5   2  -2  109.43    5.63
  -5   2  -2  126.61    6.88
  -5  -2   2  127.80    8.69
   5   2   2  128.35    6.85
   5   2  -2   90.60   16.08
  -5  -2  -2  134.02   17.47
  -5   2   2  120.11   13.76
   5  -2   2  123.48    7.77
  -5   2   2  126.20   16.36
   5   2   3   21.69    3.97
  -5   2  -3   29.67    4.94
  -5   2  -3   21.58    3.58
   5   2   3   23.21    3.66
  -5  -2   3   26.66    5.46
  -5  -2   3   26.51    3.09
  -5   2   3   27.90    6.03
  -5  -2  -3   29.31    3.75
   5   2   4   38.87    9.68
  -5  -2   4   32.65    2.01
  -5   2  -4   38.47    6.40
  -5   2  -4   28.60    3.96
  -5  -2   4   36.88    4.16
   5   2  -4   36.49    8.71
  -5   2   4   36.86    6.64
  -5  -2  -4   39.54    6.05
  -5   2   4   39.98    5.73
   5   2   5  147.62    8.97
  -5  -2   5  148.23    8.35
  -5   2  -5  160.25   17.52
  -5   2  -5  131.47   12.60
  -5  -2   5  159.96   21.23
   5   2  -5  143.18    8.48
  -5   2   5  143.85    8.16
  -5  -2  -5  154.27   19.97
  -5   2   5  163.03   16.57
   5   2   6   20.53    6.94
  -5  -2   6   23.96    3.54
  -5   2  -6   21.34    6.35
  -5   2  -6   18.12    3.31
   5  -2  -6   22.21    5.97
  -5  -2   6   20.75    3.06
  -5  -2  -6   23.42    4.02
  -5   2   6   19.84    3.44
   5   2  -6   28.40    4.40
  -5   2   6   29.16    4.22
   5   2   7  256.00   13.92
   5  -2  -7  310.84   16.27
  -5   2  -7  324.65   17.14
  -5   2  -7  301.46   15.18
  -5  -2   7  297.96   15.80
  -5  -2   7  298.47   15.74
  -5  -2  -7  296.62   16.17
   5   2  -7  262.87   13.80
   5  -2   7  329.18   17.11
  -5   2   7  297.57   15.87
  -5   2   7  305.44   16.14
   5   2   8  102.66   17.75
   5  -2  -8   90.96   14.76
  -5   2  -8  107.56   15.22
  -5  -2   8  101.45   12.99
  -5  -2   8  103.20   11.54
  -5  -2  -8  100.72   12.54
  -5   2   8   95.49   12.42
   5   2  -8   95.47    5.91
  -5   2   8  110.02   10.34
   5   2   9  225.64   12.67
  -5   2  -9  195.80   14.17
   5  -2  -9  196.08   10.79
  -5  -2   9  200.30   11.50
  -5  -2   9  200.71   12.80
  -5   2   9  218.69   11.53
   5  -2   9  223.92   12.05
  -5   2   9  235.69   18.34
   5   2  10  265.51   14.44
  -5   2 -10  314.99   16.79
  -5  -2  10  327.92   17.94
   5  -2 -10  323.09   16.71
  -5  -2  10  311.86   15.98
  -5   2  10  330.94   16.82
   5  -2  10  338.84   18.29
  -5  -2 -10  321.63   17.23
  -5   2  10  323.97   17.20
   5   2  11   72.73    8.88
  -5  -2  11   95.24   11.25
  -5   2 -11   80.85   16.52
  -5  -2  11   84.60   11.71
  -5   2  11   75.23   14.75
   5   2 -11   84.52   11.01
  -5   2  11   77.48   14.22
   5   2  12   62.55   13.53
   5  -2 -12   72.91   12.82
  -5   2 -12   67.25   12.86
  -5  -2  12   62.87   11.42
  -5  -2  12   71.27   10.95
  -5   2  12   71.60    8.15
   5  -2  12   73.67   11.60
   5   2 -12   65.70    5.92
  -5   2  12   76.24   11.78
   5   2  13  224.69   18.26
  -5  -2  13  235.49   18.58
  -5   2 -13  244.52   19.70
  -5  -2  13  243.45   19.48
   5  -2 -13  239.67   19.01
  -5  -2 -13  243.24   19.43
  -5   2  13  249.90   19.46
   5  -2  13  249.63   20.60
   5   2 -13  244.60   19.18
  -5   2  13  236.75   20.09
   5   2  14  113.24    8.40
  -5  -2  14  143.47    9.94
  -5   2 -14  138.93   15.22
   5  -2 -14  123.01   12.47
  -5  -2  14  174.31   23.34
   5   2 -14  141.31    9.54
   5  -2  14  153.14   11.38
  -5  -2 -14  146.21   17.33
  -5   2  14  152.02   17.41
   5   2  15    6.10    2.24
  -5  -2  15    6.01    1.42
  -5   2 -15    4.69    1.65
   5  -2 -15    7.39    2.03
  -5  -2  15    8.46    2.04
   5   2 -15    4.28    1.03
   5  -2  15    7.58    1.97
  -5  -2 -15    5.01    1.21
  -5   2  15    8.68    2.30
   5   2  16   65.34   15.21
  -5   2 -16   63.24   14.95
   5  -2 -16   60.38    9.85
  -5  -2  16   63.57   11.17
   5  -2  16   61.49   12.89
  -5   2  16   67.10   11.62
   5   2  17   70.24   12.62
  -5   2 -17   60.99   12.78
   5  -2 -17   72.33   13.17
  -5  -2  17   74.73   11.09
   5   2 -17  130.58   26.05
  -5  -2 -17   64.71    7.51
   5  -2  17   67.86   12.50
  -5   2  17   70.40   11.69
   5   2  18   14.91    3.13
  -5   2 -18   14.79    3.26
   5  -2 -18   19.83    4.96
  -5  -2  18   20.30    4.00
   5   2 -18   22.27    4.59
  -5  -2 -18   18.88    4.49
   5  -2  18   19.63    5.03
  -5   2  18   21.20    3.69
   5   2  19   20.54    5.11
   5  -2 -19   33.14    5.74
  -5  -2  19   33.41    6.42
   5   2 -19   31.77    7.62
  -5  -2 -19   32.15    4.69
   5  -2  19   30.48    6.34
  -5   2  19   30.32    5.29
   5   2  20    7.75    2.35
  -5   2 -20   12.67    3.74
  -5  -2  20   10.36    3.93
   5  -2 -20   13.79    3.30
   5  -2  20   13.54    3.68
   5   2 -20    9.93    2.62
  -5   2  20    2.42    0.96
   5   2  21   77.79   16.13
  -5  -2  21  102.43   16.95
  -5  -2 -21  113.20   20.65
   5  -2  21  115.92   20.84
   5   2 -21  119.57   19.06
  -5   2  21  115.21   16.01
   5   2  22    2.63    1.21
  -5   2 -22    3.01    1.44
  -5  -2  22    1.63    0.90
   5   2 -22    2.09    1.86
  -5  -2 -22    3.18    1.34
  -5   2  22    1.96    1.45
   5   2  23   10.60    3.17
  -5   2 -23   16.49    4.61
  -5  -2  23   17.22    4.03
  -5  -2 -23   12.53    3.76
   5  -2  23   18.80    5.10
   5   2 -23   16.49    4.47
  -5   2  23   17.03    5.00
   5   2  24    9.16    3.10
  -5   2 -24    7.42    3.06
   5  -2 -24   12.91    2.83
  -5  -2  24    8.07    2.76
   5   2 -24   11.07    4.21
  -5  -2 -24    8.43    2.99
   5  -2  24   11.53    4.11
  -5   2  24    7.41    2.64
   5   2  25   37.55    8.00
  -5   2 -25   45.38   10.94
  -5  -2  25   52.32   10.89
   5   2 -25   61.67    8.11
  -5  -2 -25   46.06    7.76
  -5   2  25   67.61   14.46
   5   2  26    4.11    1.99
  -5   2 -26    7.15    3.22
  -5  -2  26    7.64    3.18
   5   2 -26   12.34    2.83
  -5  -2 -26    8.40    3.58
  -5   2  26    8.28    3.84
   5   2  27    8.75    4.27
  -5  -2  27   13.96    3.40
   5   2 -27   16.22    4.32
  -5   2  27   10.96    4.37
  -5   2 -28   14.20    5.10
  -5  -2  28   10.78    3.33
   5   2 -28   17.40    4.80
   5  -2  28   15.52    5.49
  -5   2  28   18.65    6.35
   5  -2 -29   30.73    7.62
  -5  -2  29   28.89   13.62
   5   2 -29   43.55   11.39
  -5   2  29   29.69   14.08
   5  -2 -30   29.45    8.37
  -5  -2  30   19.92    7.47
   5   2 -30   25.62    6.90
  -5   2  30   21.36    8.22
   5  -2 -31   34.92    8.21
   5   2 -31   33.87   11.71
  -5   2  31   33.90   10.08
   5  -2 -32   -0.60    2.55
   5   2 -32   -0.26    2.74
  -5   2  32    0.49    1.66
   5   2 -33    7.82    3.19
   5   3   0   43.69    9.98
  -5   3   0   41.04    6.82
   5  -3   0   33.32    6.46
  -5  -3   0   38.86    6.78
   5  -3   0   42.92    8.92
   5   3   1   84.60   15.46
  -5  -3   1   96.10   15.06
  -5   3  -1   95.46   12.12
   5  -3  -1   97.29    7.65
  -5  -3  -1   94.40    9.77
  -5   3   1   96.25    9.29
   5  -3   1   90.06    4.98
   5   3   2   14.66    3.34
  -5   3  -2   22.13    5.07
  -5  -3   2   19.87    3.10
   5  -3  -2   17.95    3.87
   5  -3  -2   29.28    6.98
  -5  -3  -2   18.61    3.33
  -5   3   2   19.50    3.20
   5   3   3  121.80    8.53
  -5   3  -3  103.82    9.86
  -5  -3   3  128.44   18.28
   5  -3  -3  107.70    6.21
  -5  -3  -3  130.15   16.83
  -5   3   3  129.68   14.82
   5   3   4  197.28   11.32
  -5   3  -4  173.36    9.93
  -5  -3   4  186.67   10.42
   5  -3  -4  192.20   10.05
  -5  -3  -4  206.79   11.82
  -5   3   4  186.77   10.26
  -5   3   4  218.16   18.83
   5   3   5  188.81   10.83
   5  -3  -5  158.53    8.61
  -5   3  -5  167.00   10.52
  -5  -3   5  185.18   15.58
   5   3  -5  197.03   11.25
  -5  -3  -5  181.03   22.66
  -5   3   5  170.30   16.01
  -5   3   5  165.38    9.68
   5   3   6   12.25    2.88
   5  -3  -6   11.37    2.35
  -5   3  -6   13.90    3.44
  -5  -3   6   20.64    6.48
  -5  -3   6   11.60    2.80
  -5  -3  -6   14.96    2.75
  -5   3   6   12.33    3.44
   5   3  -6   14.15    5.37
  -5   3   6   17.11    3.32
   5   3   7   40.81   15.86
   5  -3  -7   24.74    5.72
  -5   3  -7   19.00    5.34
  -5  -3   7   29.16    6.76
   5   3  -7   38.91   10.14
  -5  -3  -7   27.89   12.18
  -5   3   7   28.03    5.65
  -5   3   7   38.95    8.62
   5  -3  -8 1163.69   47.04
  -5   3  -8 1197.95   49.20
  -5  -3   8 1184.59   48.63
  -5  -3   8 1112.65   53.50
  -5  -3  -8 1187.58   48.66
  -5   3   8 1112.74   53.77
   5   3  -8 1136.82   56.14
  -5   3   8 1176.54   48.22
  -5   3  -9  165.57   14.41
  -5  -3   9  211.01   21.97
  -5  -3   9  226.10   26.49
  -5  -3  -9  225.68   19.32
  -5   3   9  194.60   23.04
  -5   3   9  228.87   26.58
   5   3  10   28.60    5.22
  -5   3 -10   27.36    5.30
  -5  -3  10   20.20    3.48
  -5  -3  10   25.78    3.80
  -5   3  10   28.07    3.21
   5  -3  10   31.49    7.18
  -5  -3 -10   33.65    4.92
  -5   3  10   30.61    5.18
   5   3  11   14.01    2.86
  -5  -3  11    8.70    1.65
  -5   3 -11   12.78    2.46
  -5  -3  11   11.56    1.81
  -5   3  11    8.41    1.89
   5   3 -11   10.65    2.49
   5  -3  11    9.31    3.74
  -5  -3 -11   10.51    1.58
  -5   3  11    9.96    1.76
   5   3  12   20.66    4.93
  -5  -3  12   15.99    3.63
  -5   3 -12   27.39    4.32
  -5  -3  12   23.06    4.19
   5  -3 -12   21.82    4.44
  -5  -3 -12   20.60    3.98
  -5   3  12   13.72    2.81
   5  -3  12   19.68    4.27
   5   3 -12   22.16    4.65
  -5   3  12   19.25    3.57
   5   3  13   43.41    9.74
  -5  -3  13   60.36    8.33
  -5   3 -13   54.29   11.52
   5  -3 -13   56.61    8.67
  -5  -3  13   55.38    5.71
   5   3 -13   50.98   11.74
   5  -3  13   59.15   13.23
   5   3  14   10.78    3.01
  -5  -3  14   14.22    2.50
  -5   3 -14   15.81    3.16
   5  -3 -14   13.08    3.23
  -5  -3  14   18.51    3.61
   5   3 -14   14.51    3.66
   5  -3  14   16.50    4.23
  -5  -3 -14   14.79    3.23
  -5   3  14   11.32    2.40
   5   3  15   15.43    4.58
  -5  -3  15   14.10    3.01
  -5   3 -15   17.46    4.00
   5  -3 -15   11.62    2.03
  -5  -3  15   15.80    2.70
   5   3 -15   13.35    3.28
   5  -3  15   10.54    2.47
  -5  -3 -15   15.21    3.21
  -5   3  15   14.97    2.41
   5   3  16  161.37   18.37
  -5   3 -16  189.13   19.77
   5  -3 -16  194.22   20.07
  -5  -3  16  175.80   18.17
  -5  -3  16  197.91   20.59
   5  -3  16  212.05   22.00
  -5  -3 -16  194.33   28.29
  -5   3  16  184.16   28.10
   5   3  17   19.48    4.94
  -5   3 -17   27.42    5.69
   5  -3 -17   25.73    5.11
  -5  -3  17   24.51    5.44
  -5  -3  17   30.97    5.92
   5  -3  17   21.96    4.60
  -5  -3 -17   21.86    4.80
  -5   3  17   21.44    4.01
   5   3  18    6.69    2.11
  -5   3 -18   18.63    4.61
   5  -3 -18   17.29    3.11
  -5  -3  18   16.25    4.88
   5   3 -18   29.59    7.69
  -5  -3 -18   14.02    3.01
   5  -3  18   18.25    4.42
  -5   3  18   15.29    3.61
   5   3  19   17.23    4.97
   5  -3 -19   17.32    4.50
  -5  -3  19   15.82    4.40
   5   3 -19   33.63    8.99
  -5  -3 -19   21.77    5.12
   5  -3  19   21.90    5.83
  -5   3  19   19.45    4.25
   5   3  20   58.00   13.74
   5  -3 -20   55.27    9.67
  -5  -3  20   54.62    9.00
   5   3 -20   67.59   17.29
  -5  -3 -20   61.70   12.99
   5  -3  20   61.35   11.10
  -5   3  20   58.47    9.00
   5   3  21    3.37    1.03
   5  -3 -21    2.47    1.38
  -5  -3  21    1.42    1.13
   5   3 -21    3.61    1.62
  -5  -3 -21    4.70    1.78
   5  -3  21    5.08    1.74
  -5   3  21    4.93    1.77
   5   3  22   14.98    4.09
  -5   3 -22   21.72    7.69
   5  -3 -22   20.54    5.78
  -5  -3  22   20.28    5.57
   5   3 -22   22.45    4.18
  -5  -3 -22   19.14    4.76
   5  -3  22   27.00    5.03
  -5   3  22   22.24    4.06
   5   3  23    0.90    0.55
  -5   3 -23    1.87    1.34
   5  -3 -23    1.89    1.59
  -5  -3  23    2.30    1.14
   5   3 -23    7.45    3.26
  -5  -3 -23    1.91    1.10
   5  -3  23    6.26    3.10
  -5   3  23    2.45    1.83
   5   3  24   42.92   10.07
  -5   3 -24   54.78   12.39
   5  -3 -24   60.18    7.92
  -5  -3  24   52.87   12.99
   5   3 -24   73.88   10.15
  -5  -3 -24   57.76   10.66
   5  -3  24   70.02   11.41
  -5   3  24   59.17   12.16
   5   3  25    2.42    1.82
  -5   3 -25    3.64    2.06
  -5  -3  25   -0.02    1.70
   5  -3 -25    1.71    1.27
  -5  -3 -25    0.56    1.18
   5   3 -25   -0.30    2.26
  -5   3  25    2.06    1.92
   5   3  26   10.49    3.91
  -5   3 -26   16.10    4.38
   5  -3 -26   16.00    3.58
  -5  -3  26   15.66    4.26
   5   3 -26   23.27    5.24
  -5  -3 -26   15.87    3.84
   5  -3  26   19.36    5.10
  -5   3  26   13.67    3.94
  -5  -3  27    4.52    3.00
   5  -3 -27    5.09    2.71
  -5  -3 -27    7.37    3.57
   5   3 -27    4.95    2.51
  -5   3  27    8.32    4.03
  -5   3 -28   15.94    6.43
  -5  -3  28   18.06    6.14
   5   3 -28   32.19    7.47
  -5   3  28   16.02    4.67
   5   3 -29   32.20    9.21
   5  -3  29   33.67    9.32
  -5   3  29   26.97    8.28
   5   3 -30   51.17   16.17
  -5   3  30   40.37   12.83
   5  -3 -31   16.03    3.18
   5   3 -31   18.11    3.92
  -5   3  31   13.42    3.37
   5   3 -32   35.17    9.24
  -5   3  32   20.65    7.17
   5   4   0   16.32    3.10
  -5   4   0   13.60    2.72
   5  -4   0   17.47    4.05
   5   4   1  285.50   15.37
  -5  -4   1  300.72   16.05
   5  -4  -1  325.08   17.51
  -5   4  -1  285.99   15.05
   5   4  -1  276.97   18.40
  -5   4   1  287.28   15.27
   5  -4   1  305.25   16.36
   5   4   2    4.58    1.71
  -5   4  -2    7.06    2.05
  -5  -4   2    6.37    2.22
   5  -4  -2    3.99    1.77
   5  -4  -2    9.07    2.30
  -5  -4  -2   11.47    5.14
  -5   4   2    6.27    1.78
   5   4   3  280.57   15.38
   5  -4  -3  298.88   14.87
  -5   4  -3  307.39   16.33
  -5  -4   3  277.40   14.93
   5   4  -3  303.01   16.10
  -5  -4  -3  292.90   15.75
  -5   4   3  275.81   14.61
   5   4   4   94.37   16.41
  -5   4  -4   79.23   11.80
   5  -4  -4   86.53    9.19
  -5   4   4   89.64   14.36
  -5  -4  -4  113.20   12.95
   5  -4  -5  369.76   28.54
  -5   4  -5  306.68   24.08
  -5  -4   5  353.75   27.77
   5   4  -5  366.94   30.38
  -5  -4  -5  353.26   27.72
  -5   4   5  335.61   26.00
   5   4   6   19.44    4.42
   5  -4  -6   12.42    3.97
  -5   4  -6   18.42    4.11
  -5  -4   6   18.23    2.93
   5   4  -6   16.43    3.34
  -5  -4  -6   19.96    4.25
  -5   4   6    9.18    2.40
   5   4   7  104.07   13.45
   5  -4  -7   99.11    8.10
  -5   4  -7  103.79    8.91
  -5  -4   7  115.30   17.19
  -5   4   7  102.35    8.59
   5   4  -7  118.49   10.44
  -5   4   7  124.87   13.49
   5   4   8  158.82   13.14
   5  -4  -8  185.98   14.62
  -5   4  -8  186.68   15.25
  -5  -4   8  200.42   27.20
  -5   4   8  178.45   14.37
   5   4  -8  190.23   15.24
   5   4   9   23.82    3.44
   5  -4  -9   17.83    3.51
  -5   4  -9   23.40    4.52
  -5  -4   9   21.36    3.68
   5   4  -9   23.44    5.28
  -5  -4  -9   26.90    3.65
  -5   4   9   20.71    3.51
   5   4  10    1.33    1.03
   5  -4 -10    2.18    0.90
  -5   4 -10    3.32    1.71
  -5  -4  10    7.50    2.67
   5   4 -10    3.92    1.85
  -5  -4 -10    6.05    1.39
  -5   4  10    2.45    0.66
  -5   4  10    5.06    1.64
   5   4  11   27.98    6.29
   5  -4 -11   32.45    6.62
  -5   4 -11   34.18    7.31
  -5  -4  11   33.73    5.92
   5   4 -11   28.56    6.15
  -5  -4 -11   28.58    7.77
  -5   4  11   23.31    5.04
  -5   4  11   36.31    7.52
   5   4  12   30.01    5.54
  -5  -4  12   23.96    5.53
  -5   4 -12   30.92    6.11
  -5  -4  12   39.20    6.99
   5  -4 -12   27.18    4.45
  -5  -4 -12   34.76    5.90
  -5   4  12   26.04    5.21
   5  -4  12   32.86    7.82
   5   4 -12   29.91    7.84
  -5   4  12   35.92    5.50
   5   4  13  138.56   14.77
  -5  -4  13  119.44   12.41
  -5   4 -13  145.22   19.06
   5  -4 -13  131.55   13.74
  -5  -4  13  144.09   22.16
   5   4 -13  117.51   12.54
   5  -4  13  134.51   17.61
  -5  -4 -13  138.21   22.58
  -5   4  13  138.38   17.56
   5   4  14   60.19   10.20
  -5  -4  14   51.82    7.14
  -5   4 -14   59.81   10.72
   5  -4 -14   56.34   10.66
  -5  -4  14   67.75   10.35
   5   4 -14   48.08   11.54
   5  -4  14   63.41   13.80
  -5  -4 -14   68.95   10.14
  -5   4  14   61.50    8.10
   5   4  15   51.81    6.91
  -5  -4  15   58.35    5.68
  -5   4 -15   45.76    6.39
  -5  -4  15   40.58    8.12
  -5  -4 -15   54.74    7.56
   5   4 -15   32.27    8.07
  -5   4  15   43.77    8.01
   5   4  16   74.22    9.18
  -5  -4  16   49.09    6.67
  -5   4 -16   71.18   12.86
  -5  -4  16   64.98    7.77
   5   4 -16   46.06    9.69
  -5   4  16   63.08    7.53
   5   4  17   15.48    3.58
  -5   4 -17   14.71    3.94
  -5  -4  17   21.44    4.79
  -5  -4  17   10.79    2.87
  -5  -4 -17   11.81    3.08
  -5   4  17   13.57    3.86
   5   4  18    1.73    2.10
  -5   4 -18    1.08    1.32
   5  -4 -18    0.95    1.18
  -5  -4  18    4.14    1.35
  -5  -4  18    1.86    1.14
  -5  -4 -18    1.77    1.49
  -5   4  18    1.40    0.71
   5   4  19   41.67    7.37
  -5   4 -19   47.50    8.25
   5  -4 -19   45.78    9.67
  -5  -4  19   42.71   10.00
  -5  -4 -19   53.61    8.42
  -5   4  19   49.87    7.99
   5   4  20   34.78    5.79
   5  -4 -20   33.15    5.63
  -5  -4  20   34.41    5.20
   5   4 -20  126.54   31.10
  -5   4  20   37.19    5.88
   5   4  21    5.12    1.59
  -5   4 -21    3.51    1.84
  -5  -4  21    5.84    1.78
   5  -4 -21    8.87    2.58
   5  -4  21    8.51    2.76
   5   4 -21   10.78    4.80
  -5   4  21   10.35    3.13
   5   4  22    1.34    0.94
  -5   4 -22    3.06    1.55
   5  -4 -22    3.11    1.70
  -5  -4  22    5.06    1.97
   5   4 -22   -1.42    2.24
  -5  -4 -22    1.53    0.87
   5  -4  22    8.12    3.43
  -5   4  22    1.37    1.23
   5   4  23    4.70    2.09
  -5   4 -23    9.41    4.92
  -5  -4  23    5.08    2.16
   5  -4 -23    7.66    3.98
   5  -4  23    7.19    3.09
   5   4 -23    9.19    3.72
  -5   4  23    8.47    3.31
   5   4  24   39.90    9.04
  -5   4 -24   46.13    9.79
   5  -4 -24   57.31   12.76
   5   4 -24   55.57   11.26
  -5  -4 -24   52.58   11.36
   5  -4  24   59.10   10.51
  -5   4  24   48.89    9.87
   5   4  25   32.48    8.35
  -5   4 -25   48.93   14.76
   5  -4 -25   56.02   11.79
   5   4 -25   69.08   14.31
  -5  -4 -25   56.62   12.43
   5  -4  25   61.11   13.60
  -5   4  25   57.26   13.21
   5   4  26   24.60    7.49
  -5   4 -26   29.90   15.51
   5  -4 -26   29.27   13.45
   5   4 -26   38.63    9.00
  -5  -4 -26   29.41   14.05
   5  -4  26   34.53    9.62
  -5   4  26   27.52    8.72
   5  -4 -27   29.12   13.62
   5   4 -27   42.73   10.32
  -5  -4 -27   27.87    7.77
  -5   4  27   30.29    7.00
   5  -4 -28    2.76    1.95
   5   4 -28    1.19    1.19
  -5   4  28    1.56    1.65
   5  -4 -29   34.46   10.25
   5   4 -29   50.25   13.64
   5  -4  29   37.73   11.89
  -5   4  29   32.81   10.48
   5   4 -30    9.55    2.73
  -5   4  30    6.36    3.20
   5   4 -31   38.99    9.41
  -5   4  31   21.71    6.84
   5   5   0   22.63    4.97
  -5   5   0   24.74    4.64
   5  -5   0   23.11    3.65
   5   5   1   21.94    5.34
   5  -5  -1   30.43    6.58
  -5   5  -1   38.94    7.71
  -5   5   1   37.49    8.75
   5   5  -1   26.71    4.63
   5   5   2   46.38   11.29
  -5   5  -2   63.14   11.81
  -5  -5   2   51.87    7.26
  -5   5   2   59.04   11.94
   5   5   3  206.30   16.97
  -5   5  -3  221.14   15.10
  -5  -5   3  203.17   14.63
  -5   5   3  206.42   15.01
  -5  -5  -3  225.60   15.95
   5   5   4  244.38   16.56
  -5   5  -4  262.73   18.14
  -5  -5   4  230.55   15.94
  -5   5   4  250.53   16.33
  -5  -5  -4  250.43   31.93
   5   5   5   68.73   13.44
  -5   5  -5   76.56   15.86
  -5  -5   5   64.55    8.16
  -5   5   5   54.98    4.94
  -5  -5  -5   70.99   10.79
   5   5   6   74.27   14.79
  -5   5  -6   99.53   12.74
  -5  -5   6   80.18   11.91
   5   5  -6   81.76   15.78
  -5   5   6   81.65   10.17
  -5  -5  -6   82.82   11.17
   5   5   7   51.33   11.13
  -5  -5   7   58.98    8.41
  -5   5  -7   51.58    9.52
  -5   5   7   45.83    7.25
   5   5  -7   47.68    9.37
   5  -5   7   51.62   11.67
  -5   5   7   57.97    6.67
   5   5   8   96.24   17.77
   5  -5  -8   87.04    9.44
  -5   5  -8  101.81   11.12
  -5  -5   8   99.11   17.72
  -5   5   8   94.00   10.20
   5   5  -8   97.30   17.95
  -5   5   8  102.17   15.89
   5   5   9   90.86   12.41
   5  -5  -9   79.88    8.48
  -5   5  -9   98.50   15.80
  -5  -5   9  100.58   15.35
   5   5  -9   98.64   11.46
  -5  -5  -9  103.91   20.16
  -5   5   9   79.89   11.79
  -5   5   9  100.64   15.71
   5   5  10  118.06   22.10
   5  -5 -10  113.00   17.63
  -5   5 -10  121.79   22.21
  -5   5  10  108.96   14.15
   5   5 -10  115.48   12.42
   5  -5  10  140.71   15.21
  -5   5  10  135.07   14.62
   5   5  11   91.97   13.56
  -5   5 -11   89.40    8.60
  -5  -5  11   90.72   12.10
   5  -5 -11   69.29    7.91
  -5  -5 -11   99.64    9.64
  -5   5  11   72.08   12.84
   5  -5  11   96.24    5.81
   5   5  12    8.47    2.05
   5  -5 -12    4.49    1.26
  -5   5 -12    8.54    2.52
  -5  -5  12    9.58    2.67
   5   5 -12    9.16    2.24
  -5  -5 -12   10.23    2.53
  -5   5  12    7.04    2.17
   5  -5  12   10.80    2.70
  -5   5  12   10.22    3.08
   5   5  13   32.77    6.69
  -5   5 -13   40.78    9.94
   5  -5 -13   30.67    8.58
  -5  -5  13   41.71    6.78
   5   5 -13   28.58    6.74
  -5  -5 -13   39.15    4.46
   5  -5  13   41.81    6.65
   5   5  14   26.56    6.35
  -5   5 -14   28.91    6.36
   5  -5 -14   20.63    4.82
  -5  -5  14   27.43    6.07
   5   5 -14   23.19    6.31
  -5  -5 -14   20.19    6.00
   5  -5  14   29.69    5.99
  -5   5  14   26.12    5.78
   5   5  15   53.65    9.99
  -5  -5  15   58.57    7.94
  -5   5 -15   50.28   10.09
   5  -5 -15   43.14    7.75
   5   5 -15   48.13   11.84
   5  -5  15   62.10   12.43
  -5   5  15   57.91    9.60
   5   5  16   34.93    7.07
  -5  -5  16   42.69    7.09
  -5   5 -16   41.19   11.23
   5  -5 -16   37.34    9.64
   5   5 -16   31.28    7.16
   5  -5  16   45.16    8.48
  -5   5  16   36.52    8.56
   5   5  17   53.74   10.02
  -5   5 -17   44.81    7.35
   5  -5 -17   49.75    6.95
  -5  -5  17   61.49    9.13
  -5  -5 -17   60.39   10.95
  -5   5  17   49.14    9.33
   5   5  18   19.84    5.71
  -5   5 -18   18.78    4.93
   5  -5 -18   19.17    4.77
  -5  -5  18   26.59    4.09
  -5  -5 -18   21.12    5.21
   5   5  19   26.53    3.78
  -5   5 -19   23.27    4.31
   5  -5 -19   14.71    3.87
  -5  -5  19   23.29    4.88
  -5   5  19   23.58    6.30
   5   5  20    6.96    2.56
   5  -5 -20   12.13    4.63
  -5  -5  20   11.56    3.77
  -5   5  20   15.44    2.99
   5   5  21    1.54    1.02
  -5   5 -21    2.78    1.83
   5  -5 -21    4.37    2.03
   5   5 -21   -0.40    8.44
  -5   5  21   -1.35    2.20
   5   5  22   19.76    4.91
   5  -5 -22   25.80    5.36
  -5  -5 -22   24.03    5.20
  -5   5  22   24.81    5.96
   5   5  23   22.12    6.64
  -5   5 -23   29.07    7.89
   5  -5  23   40.94    8.06
  -5   5  23   30.04    8.14
   5   5  24   12.76    3.30
  -5   5 -24   14.98    4.04
   5   5 -24   14.37    3.68
   5  -5  24   17.32    4.01
  -5   5  24   13.21    3.24
   5   5  25   11.41    4.03
  -5   5 -25    9.67    4.09
   5   5 -25   11.30    3.07
  -5  -5 -25    8.46    2.38
   5  -5  25   15.46    4.35
  -5   5  25    8.42    2.47
  -5   5 -26   -0.27    1.53
   5  -5 -26    1.95    1.89
   5   5 -26    4.60    2.60
  -5  -5 -26    3.30    1.75
   5  -5  26    0.86    1.72
  -5   5  26   -0.65    2.42
   5   5 -27   53.14   16.97
  -5  -5 -27   42.81   12.67
  -5   5  27   48.12   15.71
   5   5 -28    9.41    3.38
  -5   5  28    4.19    2.68
   5   5 -29    3.75    1.56
  -5   5  29    7.38    3.71
  -5   5  30    7.25    2.81
   5   6   0   -0.18    2.27
  -5   6   0    2.17    1.03
  -5  -6   0    5.50    2.35
   5   6   1  154.60   20.58
  -5  -6   1  168.17   23.34
  -5   6  -1  192.19   20.51
  -5  -6  -1  163.25   27.61
  -5   6   1  196.66   20.52
   5   6   2   26.91    5.26
  -5   6  -2   55.10    7.30
  -5  -6   2   28.30    4.32
  -5   6   2   34.66    8.51
   5   6   3    8.14    2.09
  -5   6  -3    8.72    2.12
  -5  -6   3    7.19    2.12
   5  -6  -3   -2.69    2.23
  -5   6   3   10.44    2.74
   5   6   4   35.90    7.70
  -5   6  -4   42.99   11.86
  -5  -6   4   33.27    6.00
   5   6  -4   30.61    5.82
  -5   6   4   38.59    7.98
  -5  -6  -4   34.60    6.74
   5   6   5   17.82    4.75
  -5  -6   5   16.80    3.37
  -5   6  -5   24.19    5.03
  -5  -6  -5   21.56    3.79
  -5   6   5   24.32    6.81
   5   6   6   13.79    2.80
  -5   6  -6   18.93    3.69
  -5  -6   6   11.39    2.41
   5   6  -6   10.35    2.36
  -5   6   6   11.71    2.90
  -5  -6  -6   12.17    3.20
   5   6   7   67.81   13.15
  -5  -6   7   84.72    8.43
  -5   6  -7   92.68   17.01
  -5   6   7   94.57    8.01
   5   6  -7   77.15   12.44
   5  -6   7   84.31   13.31
   5   6   8   32.82    7.64
  -5   6  -8   36.72    9.92
   5  -6  -8    9.70    6.02
  -5  -6   8   30.62    6.71
   5   6  -8   33.62    6.92
  -5  -6  -8   29.13    5.76
  -5   6   8   40.25    9.68
   5  -6   8   36.07   10.23
   5   6   9   52.91    7.08
  -5  -6   9   51.91    8.61
  -5   6  -9   63.97   11.12
  -5   6   9   51.26    6.10
   5   6  -9   47.12    8.99
   5  -6   9   56.70    8.97
  -5   6   9   49.66    6.15
   5   6  10   28.23    7.29
  -5  -6  10   30.67    5.55
  -5   6 -10   43.86    9.85
  -5   6  10   29.85    7.27
   5   6 -10   27.22    7.38
   5  -6  10   37.94    7.28
   5   6  11   22.54    5.20
  -5   6 -11   34.01    8.00
  -5  -6  11   18.07   12.54
  -5   6  11   17.90    6.09
   5  -6  11   22.56    5.99
  -5   6  11   23.67    5.66
   5   6  12    6.97    2.53
  -5  -6  12    7.96    2.51
  -5   6 -12   10.23    3.54
  -5  -6 -12    6.06    2.36
   5   6 -12    6.52    2.07
   5  -6  12    7.68    4.41
   5   6  13  161.78   24.07
  -5   6 -13  192.81   47.57
  -5  -6  13  164.64   19.25
   5   6 -13  147.11   16.64
   5  -6  13  185.25   41.31
  -5   6  13  146.73   21.18
   5   6  14   66.05   11.49
  -5  -6  14   73.15   13.36
  -5   6 -14   87.18   15.64
   5  -6 -14   58.23   10.25
   5   6 -14   69.86   14.44
   5  -6  14   91.53   19.54
   5   6  15  104.79   13.01
  -5  -6  15  106.66   17.37
  -5   6 -15  119.54   13.89
   5  -6 -15  103.53    8.21
   5   6 -15  106.33    9.04
   5  -6  15  127.50   19.33
   5   6  16   -0.39    2.21
  -5  -6  16    0.67    1.11
  -5   6 -16    1.78    1.01
   5  -6 -16   -2.66    1.24
   5   6 -16    2.19    1.33
   5  -6  16    1.08    1.09
   5   6  17   25.44    5.32
  -5   6 -17   26.91    6.49
   5  -6 -17   21.20    4.95
  -5  -6  17   36.57    8.54
   5  -6  17   39.53   15.13
  -5   6  17   23.24    5.08
   5   6  18  117.28   18.04
  -5   6 -18  123.11   18.17
   5  -6 -18  105.90   15.48
  -5  -6  18  126.39   21.30
   5  -6  18  150.94   58.04
  -5   6  18  138.32   15.03
   5   6  19   53.77    9.45
  -5   6 -19   55.24   15.19
   5  -6 -19   48.96    9.18
  -5  -6  19   69.82   12.30
  -5  -6 -19   66.74   12.67
   5  -6  19   79.73   15.59
   5   6  20   30.59    8.70
  -5   6 -20   27.49    7.66
   5  -6 -20   23.78    7.88
  -5  -6  20   34.72    6.54
  -5  -6 -20   34.29   14.00
   5  -6  20   40.14    7.76
  -5   6  20   30.41    9.13
   5   6  21    8.99    4.08
  -5   6 -21   10.65    2.76
  -5  -6 -21   10.57    2.76
   5  -6  21   17.07    5.12
  -5   6  21   12.91    3.79
   5   6  22    6.21    2.96
   5   6 -22   36.93    9.25
  -5  -6 -22   12.98    3.82
   5  -6  22   15.47    3.76
  -5   6  22   10.73    3.86
   5   6  23    0.32    1.82
  -5   6 -23    2.41    1.91
   5   6 -23    4.73    3.50
   5  -6  23    6.17    3.32
  -5   6  23    7.69    4.69
  -5   6 -24   10.86    4.07
   5   6 -24   10.53    4.18
  -5  -6 -24   10.92    4.35
   5  -6  24    8.41    5.22
  -5   6  24    5.64    3.86
  -5   6 -25   65.06   21.84
   5   6 -25   68.40   23.28
  -5  -6 -25   76.26   19.25
   5  -6  25   85.26   24.00
  -5   6  25   57.67   18.71
   5   6 -26    4.32    2.27
  -5  -6 -26    3.04    4.82
   5  -6  26    1.15    2.52
  -5   6  26    4.72    2.66
   5   6 -27   61.46   17.82
  -5   6  27   56.54   18.08
  -5   6  28   24.79    7.06
   5   7   0    7.17    2.23
  -5   7   0    1.20    0.84
   5   7   1  130.15   13.11
  -5  -7   1  141.36   19.50
  -5   7  -1  129.39   13.76
  -5   7   1  142.89   16.23
   5   7  -1  147.86   14.42
   5   7   2    2.39    1.70
  -5  -7   2    6.59    2.23
  -5   7  -2    5.45    2.73
  -5   7   2    4.60    1.30
   5   7  -2    7.80    2.69
   5   7   3   44.55    9.32
  -5  -7   3   44.64    9.69
  -5   7  -3   50.54   12.17
  -5  -7  -3   45.86    8.15
  -5   7   3   42.63    9.45
   5   7   4  113.65   21.84
  -5   7  -4  152.16   16.51
  -5  -7   4  123.71   22.62
  -5   7   4  135.61   23.00
  -5  -7  -4  131.45   20.96
   5   7   5   59.20   11.36
  -5   7  -5   61.69   11.33
  -5   7   5   56.16   11.95
   5   7   6    2.06    1.58
  -5   7  -6    5.78    2.21
   5   7  -6    3.26    1.94
  -5   7   6    1.67    2.11
  -5  -7  -6    1.12    2.12
   5   7   7   23.19    5.39
  -5  -7   7   26.63    4.94
  -5   7  -7   19.34    5.86
  -5   7   7   19.67    4.99
   5   7  -7   19.32    3.94
   5  -7   7   21.75    5.49
   5   7   8   73.97   15.26
  -5   7  -8  123.56   22.41
   5   7  -8   84.70   19.09
  -5   7   8  111.59   17.15
  -5  -7  -8  102.40   16.80
   5  -7   8  111.64   11.79
   5   7   9   47.23    8.45
  -5   7  -9   44.94    8.24
   5   7  -9   42.74   10.96
  -5   7   9   47.10    6.44
   5  -7   9   53.04    9.74
   5   7  10   19.58    5.25
  -5  -7  10   31.66    4.83
  -5   7 -10   30.79    4.43
  -5   7  10   22.82    7.25
   5   7 -10   23.42    4.40
   5  -7  10   25.60    5.18
   5   7  11   28.41    4.31
  -5   7 -11   32.42    6.13
  -5  -7  11   30.41    4.89
   5  -7  11   36.92    8.45
   5   7  12   16.18    4.46
  -5   7 -12   22.50    4.71
  -5  -7  12   16.71    4.82
   5  -7  12   22.09    3.90
  -5   7  12   17.44    4.55
   5   7  13   27.17    5.57
  -5   7 -13   31.82    9.63
  -5  -7  13   21.92    6.63
   5   7 -13   21.21    5.48
   5  -7  13   23.92    6.19
  -5   7  13   20.19    5.07
   5   7  14   32.85    6.03
  -5  -7  14   32.71    7.95
  -5   7 -14   36.55    8.28
  -5  -7 -14   30.41    6.83
   5   7 -14   25.20    6.39
   5  -7  14   30.42    6.00
  -5   7  14   35.53    7.24
   5   7  15    1.66    1.20
  -5  -7  15    4.78    1.99
  -5   7 -15    9.56    3.41
  -5  -7 -15    6.17    3.25
   5   7 -15    7.37    2.70
   5  -7  15    2.25    1.46
   5   7  16   46.04    8.06
  -5   7 -16   47.41   12.37
  -5  -7  16   43.50    9.05
  -5  -7 -16   47.18   10.14
   5  -7  16   52.20    9.05
   5   7  17   18.37    4.52
  -5   7 -17   21.70    4.89
  -5  -7 -17   21.37    6.29
   5  -7  17   34.65    6.70
   5   7  18   31.48   14.09
  -5   7 -18   36.24    7.77
   5  -7  18   39.35    9.82
   5   7  19    1.36    1.11
  -5   7 -19    1.93    1.65
   5  -7  19    6.90    3.25
  -5   7  19    2.46    1.94
   5   7  20   65.39   13.39
  -5   7 -20   68.20   16.39
  -5  -7  20   70.28   17.97
  -5  -7 -20   81.87   20.54
   5  -7  20  100.07   21.64
  -5   7  20   71.98   20.66
   5   7  21   46.32   12.80
  -5  -7 -21   51.55   12.87
   5  -7  21   68.11   14.19
  -5   7  21   46.95   10.80
   5   7  22    2.20    1.34
   5   7 -22   -0.45    3.29
   5  -7  22    0.85    1.66
  -5   7  22    1.87    1.70
   5   7 -23    1.58    1.93
  -5  -7 -23    0.97    1.57
   5  -7  23    3.75    2.08
  -5   7  23    0.72    1.37
  -5   7 -24    4.20    1.94
   5   7 -24    1.65    3.73
  -5  -7 -24    4.68    2.40
   5  -7  24    5.05    3.07
  -5   7  24    3.71    2.20
  -5  -7 -25   25.98    7.83
   5  -7  25   41.35   10.68
  -5   7  25   23.72    6.92
   5  -7  26    2.81    4.33
  -5   7  26    1.88    3.74
   5   8   0  174.20   15.18
  -5   8   0  186.37   54.67
   5   8   1   36.66    5.41
  -5   8  -1   33.40    5.42
   5   8  -1   25.27    6.01
  -5   8   1   28.89    5.97
   5   8   2   12.48    3.82
  -5  -8   2   12.91    3.77
  -5   8  -2   14.60    3.94
  -5   8   2   14.00    3.89
   5   8  -2    9.88    2.91
   5   8   3   30.28    7.19
  -5  -8   3   32.22    6.72
  -5   8  -3   37.72    8.21
   5   8  -3   26.78    4.85
  -5  -8  -3   38.67    8.40
  -5   8   3   36.06    7.53
   5   8   4   13.45    3.80
  -5   8  -4   14.83    4.75
  -5   8   4   15.22    4.68
   5   8   5   37.75    8.08
  -5   8  -5   36.46    5.78
  -5   8   5   34.47    6.60
   5   8   6   55.43    9.94
  -5   8  -6   55.56    9.55
   5  -8  -6   72.44   11.74
  -5   8   6   50.89    9.50
   5  -8   6   73.81   13.51
   5   8   7    4.80    2.03
   5  -8  -7    2.76    1.75
  -5   8  -7    3.89    2.15
  -5   8   7    4.10    1.83
   5   8  -7    2.24    2.20
   5  -8   7    5.79    2.51
   5   8   8   84.25   13.89
  -5   8  -8   90.26   13.74
   5   8  -8   82.87   13.68
  -5   8   8   66.82   12.03
   5  -8   8   92.59   15.49
   5   8   9   98.34   12.94
  -5   8  -9   93.25   19.36
  -5  -8   9   90.93   16.80
   5   8  -9   78.04   17.63
   5  -8   9  118.83   16.64
   5   8  10    7.83    3.64
   5  -8 -10   -0.78    3.52
  -5   8 -10   13.95    3.00
  -5  -8  10   12.44    4.02
   5   8 -10   11.45    3.39
   5  -8  10   27.60    5.83
   5   8  11    7.21    3.24
  -5  -8  11   12.40    3.09
  -5   8 -11   12.17    3.92
   5  -8 -11    2.73    3.47
  -5  -8 -11   14.66    6.52
   5   8 -11    9.42    4.29
   5  -8  11   11.65    2.90
   5   8  12   66.28   16.15
  -5   8 -12   76.82   13.56
   5  -8  12   94.04   16.89
   5   8  13  194.32   25.07
  -5   8 -13  189.21   30.30
   5   8 -13  206.92   81.60
   5  -8  13  235.00   94.58
   5   8  14    0.75    1.20
  -5   8 -14    3.69    2.38
  -5  -8  14    4.65    2.66
   5   8 -14    4.59    2.29
   5  -8  14   11.44    3.19
   5   8  15   60.45   11.77
  -5   8 -15   69.71   17.93
  -5  -8 -15   54.66   14.12
   5   8  16    6.51    3.44
  -5   8 -16    5.25    3.86
   5   8  17   12.16    3.42
  -5   8 -17   19.89    6.08
   5  -8  17   21.84    6.08
  -5   8  17   13.11    4.30
   5   8  18   17.59    5.75
  -5   8 -18   22.26    6.91
  -5  -8  18   26.08    7.15
  -5  -8 -18   21.18    6.11
   5  -8  18   29.19   13.64
  -5   8  18   17.13    5.30
   5   8  19   47.48   13.70
  -5   8 -19   67.05   21.82
  -5  -8  19   51.63   16.23
   5  -8  19   81.60   24.15
  -5   8  19   47.72   15.49
   5   8  20   78.48   21.45
  -5   8 -20   93.00   27.92
  -5  -8  20   83.98   27.72
  -5   8  20   95.33   27.94
  -5   8  21   16.12    5.45
  -5   8 -22    9.23    4.66
  -5  -8 -22   10.16    2.96
   5  -8  22   15.44    3.21
  -5  -8 -23    2.28    3.58
   5  -8  23    4.95    2.89
  -5   8  23    6.11    3.36
   5   9   0    0.36    1.47
  -5   9   0   -2.50    1.92
   5   9   1    5.53    2.58
  -5   9  -1    9.80    3.91
   5   9  -1    9.70    3.85
  -5   9   1    6.42    3.50
  -5  -9  -1    8.45    4.09
   5   9   2   10.20    3.73
  -5  -9   2    6.13    3.92
  -5   9  -2    8.89    3.95
  -5   9   2   12.76    3.52
   5   9  -2    8.08    3.37
   5   9   3   47.14    9.11
  -5   9  -3   47.06   10.47
  -5  -9   3   44.55    9.74
   5   9  -3   44.37   10.81
  -5   9   3   49.34    9.43
  -5  -9  -3   49.47   11.86
   5   9   4   47.67    9.18
  -5   9  -4   49.97    9.32
  -5   9   4   46.34    9.20
   5   9   5   35.01    9.29
  -5   9  -5   35.25   10.67
   5   9  -5   41.69    9.00
  -5   9   5   35.42    8.46
   5  -9   5   45.55    9.99
   5   9   6    4.62    2.34
  -5   9  -6    6.49    3.41
   5  -9  -6    1.62    2.29
  -5   9   6    3.25    1.79
   5  -9   6   13.53    3.45
   5   9   7   38.31    9.35
  -5   9  -7   38.10   10.21
   5   9  -7   34.86   10.88
   5   9   8   46.82   12.44
  -5   9  -8   50.41   17.11
   5   9  -8   45.24   11.50
   5  -9   8   77.30   16.53
   5   9   9   30.03    9.25
  -5   9  -9   36.20    8.47
  -5  -9   9   36.09    9.11
   5   9  -9   31.89   15.47
   5  -9   9   47.23   10.40
   5   9  10   12.69    4.37
  -5   9 -10   19.08    5.91
   5   9 -10   15.38    4.58
   5   9  11   10.96    5.11
  -5   9 -11   16.26    5.57
   5   9 -11   15.69    5.77
  -5  -9 -11   20.04    7.14
   5  -9  11   29.77   13.63
   5   9  12    4.66    2.96
  -5   9 -12    7.48    4.33
   5  -9 -12   -4.04    2.43
   5  -9  12   12.23    3.80
   5   9  13    5.79    3.17
  -5   9 -13    7.89    4.10
  -5  -9  13    8.24    4.40
   5  -9 -13   -2.03    3.24
   5  -9  13   16.09    4.79
   5   9  14   13.85   20.44
  -5   9 -14   13.15    5.08
  -5  -9  14   11.09    3.90
   5  -9  14   12.44    4.33
   5   9  15   23.44   10.21
  -5   9 -15   36.43   12.31
  -5  -9  15   37.42   12.20
   5  -9  15   56.49   14.81
   5   9  16   24.81   36.64
  -5   9 -16   32.34   10.64
  -5  -9  16   34.75   11.20
  -5  -9 -16   42.09   10.91
   5  -9  16   53.20   14.52
   5   9  17    2.40    3.72
  -5  -9  17    3.78    1.83
  -5  -9 -17    3.97    2.33
   5  -9  17   12.12    3.02
  -5   9 -18    3.23    5.50
  -5  -9 -18    1.76    2.99
   5  -9  18    4.65    2.56
  -5   9 -19    2.81    4.61
   5  -9  19    5.05    2.33
  -5   9  19    1.61    2.48
   5  -9  20   41.34   10.18
   5  10   0   -0.06    1.41
  -5  10   0   -1.09    1.69
   5 -10   0    1.62    2.79
   5  10   1    9.77    3.36
  -5  10  -1    3.67    1.97
   5  10  -1    3.11    2.78
  -5  10   1    5.27    2.82
  -5 -10  -1    4.65    3.02
   5  10   2   34.95    9.25
  -5  10  -2   32.24    9.15
   5  10  -2   20.63    7.35
  -5  10   2   25.04    7.97
   5  10   3    0.96    1.39
  -5 -10   3    3.48    2.69
  -5  10  -3    3.19    1.97
  -5  10   3    2.58    2.02
   5  10  -3    3.04    1.93
   5  10   4   32.70   11.94
  -5  10  -4   36.73   11.53
   5 -10   4   50.01   14.02
   5  10   5   31.53    9.02
  -5  10  -5   26.20   11.25
   5 -10   5   49.84   15.16
   5  10   6   60.65   18.71
  -5  10  -6   66.13   17.00
  -5 -10   6   50.89   19.33
   5  10   7   17.98    7.28
  -5  10  -7   24.33    8.58
   5  10  -7   15.25    6.94
  -5 -10  -7   21.89    9.11
   5  10   8   10.21    3.93
  -5  10  -8   13.03    5.69
  -5 -10   8   11.84    4.36
   5  10  -8    7.44    2.78
   5 -10   8   17.01    6.19
   5  10   9   11.53    5.10
  -5  10  -9   12.02    4.77
  -5 -10   9   10.86    5.06
   5  10  -9   13.28    5.44
   5  10  10    8.43    3.85
  -5 -10  10    7.64    3.62
  -5  10 -10    8.48    4.34
  -5 -10 -10    4.40    2.90
   5  10 -10    3.41    1.96
   5  10  11    1.71    2.73
  -5  10 -11   -1.71    2.55
  -5 -10  11    2.03    3.20
   5 -10 -11    3.08    4.63
   5 -10  11    1.56    2.69
   5  10  12   38.43   11.58
  -5  10 -12   42.64   14.98
   5  10  13    5.25    2.47
  -5  10 -13    4.25    2.69
  -5  10 -14    6.77    3.35
   5 -10 -14   -1.01    2.80
  -5  10 -15    8.80    4.12
  -5 -10 -15   11.37    3.38
   5 -10  15   12.45    3.74
   5  11   0    8.15    3.28
   5  11   1    3.22    4.99
   5  11  -1    6.34    3.35
   5  11   2   13.39    4.41
   5  11  -2   11.60    2.96
   5 -11   2   18.33    4.42
   5  11   3   35.86   13.71
   5  11  -3   41.81   13.45
   5 -11   3   50.08   11.93
   5  11   4   45.38   17.07
   5  11  -4   40.64   14.15
   5 -11   4   80.28   19.00
   5  11   5   10.54    3.63
   5 -11   5   12.64    3.01
   5  11   6    1.82    3.21
   5 -11   6    3.70    1.82
   5  11   7   -0.37    2.55
  -6   0   0    9.11    1.83
  -6   0   0    9.17    1.46
  -6   0  -1  107.53    9.34
  -6   0   1   98.71   15.67
  -6   0  -1   95.11   16.20
  -6   0   1  104.36    9.21
   6   0  -1   97.78   10.71
  -6   0  -2    0.95    1.25
  -6   0   2    0.20    0.70
  -6   0  -2    0.70    1.32
  -6   0   2    1.84    1.75
   6   0  -2    0.46    0.71
   6   0   2   -0.70    0.98
  -6   0  -3  198.79   16.06
  -6   0   3  207.98   18.50
  -6   0   3  203.77   24.38
  -6   0  -4    5.57    2.49
  -6   0  -4    6.71    1.47
  -6   0   4    5.03    1.04
   6   0  -4    7.34    3.26
   6   0  -5   29.06    5.57
  -6   0  -5   37.74    5.61
  -6   0  -5   37.27    7.21
  -6   0   5   37.03    4.08
   6   0   5   39.75    7.24
  -6   0   5   41.38    6.10
   6   0  -6   29.20    7.85
  -6   0  -6   32.50    6.27
  -6   0  -6   27.22    5.76
  -6   0   6   28.87    4.48
   6   0   6   29.77    6.39
  -6   0   6   34.60    7.71
  -6   0  -7   64.02    9.75
  -6   0   7   56.61    8.17
   6   0   7   53.23    7.03
  -6   0   7   55.28    8.72
   6   0  -8   14.06    2.79
  -6   0  -8   13.77    3.92
  -6   0   8   14.50    2.67
   6   0   8   15.51    3.75
  -6   0   8   16.19    3.59
   6   0  -9  159.32   10.84
  -6   0  -9  204.99   14.12
  -6   0  -9  184.63   13.63
  -6   0   9  199.15   24.38
   6   0   9  215.78   13.98
  -6   0   9  188.35   23.82
   6   0 -10   22.86    6.53
  -6   0 -10   27.29    5.90
   6   0  10   28.27    6.25
  -6   0  10   31.27    4.30
   6   0 -11  220.75   22.53
  -6   0 -11  241.43   25.01
   6   0 -11  236.20   26.70
   6   0  11  249.98   25.36
  -6   0  11  245.75   32.26
   6   0 -12   12.62    2.57
  -6   0 -12   10.33    3.32
   6   0 -12    5.53    3.63
  -6   0 -12    7.10    1.57
   6   0  12   11.91    3.37
  -6   0  12   10.08    2.07
  -6   0 -13    6.61    2.77
   6   0 -13   10.69    3.04
   6   0  13    8.60    2.11
  -6   0  13    6.84    1.57
  -6   0 -14  280.42   11.36
  -6   0 -14  245.43    8.37
   6   0  14  282.67    8.67
  -6   0  14  304.79   20.47
  -6   0 -15  101.95   18.02
  -6   0 -15   69.63   14.28
   6   0  15  101.92   13.12
  -6   0  15   95.41   12.70
  -6   0 -16    5.30    1.72
   6   0 -16    3.37    2.15
   6   0  16    2.85    1.00
  -6   0  16    4.87    2.03
  -6   0 -17   53.22    9.58
   6   0  17   43.98    9.41
  -6   0  17   41.38    6.76
  -6   0 -18   16.93    3.53
  -6   0  18   13.69    3.31
   6   0 -19   77.58   14.98
  -6   0  19   67.96   10.62
  -6   0 -20   34.88    8.09
  -6   0  20   30.05    5.60
  -6   0  21  141.58   22.03
  -6   0 -22   21.20    5.17
  -6   0  22   15.83    3.47
  -6   0 -23   53.55   11.60
  -6   0  23   55.38   11.08
  -6   0 -24   53.20   14.82
   6   0 -24   59.07   11.77
  -6   0  24   53.52   11.39
  -6   0 -25    9.36    3.07
   6   0 -25    4.36    2.81
  -6   0  25    9.40    2.71
  -6   0 -26    1.82    2.08
   6   0 -26    3.22    2.33
  -6   0  26    0.26    0.84
   6   0 -27    1.34    2.87
  -6   0  27    1.10    1.55
   6   0 -28    3.42    2.06
   6   0 -29   11.21    2.46
   6   0 -30    2.05    3.25
   6   1   0   25.49    5.74
  -6   1   0   32.78    5.43
  -6   1   0   28.52    6.51
  -6   1  -1   92.49   11.50
  -6   1  -1   81.39    6.91
  -6   1   1   82.59   12.32
  -6   1   1   82.27    9.08
   6   1  -1   85.64   11.55
   6   1   2   36.41    8.14
  -6  -1   2   44.37    4.69
  -6   1  -2   48.64    8.19
  -6   1  -2   34.07    7.08
  -6   1   2   47.55    7.45
   6   1  -2   39.12    7.64
  -6   1   2   48.22    5.85
   6   1  -2   40.70    7.95
   6   1   3  115.12   21.11
   6   1   3  162.26   12.85
  -6   1  -3  183.16   24.01
  -6  -1   3  146.04   12.87
  -6   1  -3  140.48   11.48
  -6   1   3  146.24   17.25
  -6   1   3  139.07   14.16
   6   1  -3  185.88   17.10
   6   1  -3  122.35   10.42
   6   1   4   97.61    8.08
  -6   1  -4  109.60   18.88
  -6  -1   4   85.15   14.86
  -6   1   4   80.79   12.81
   6   1  -4   73.50   15.78
  -6   1   4   87.37   14.77
  -6  -1  -4   88.57   11.72
   6   1   5   26.22    5.04
  -6   1  -5   37.09    7.11
  -6  -1   5   32.49    6.21
  -6  -1   5   30.46    5.24
  -6  -1  -5   30.23    6.25
  -6   1   5   33.54    6.38
   6  -1   5   34.35    7.03
   6   1  -5   36.39    7.50
  -6   1   5   31.02    5.18
  -6   1   5   34.47    6.82
   6   1   6    3.23    0.74
  -6   1  -6    3.14    2.54
  -6  -1   6    1.60    0.69
  -6  -1   6    4.76    1.90
  -6  -1  -6    4.56    1.43
  -6   1   6    2.74    1.19
   6  -1   6    4.94    1.60
   6   1  -6    4.22    1.95
  -6   1   6    2.79    1.02
  -6   1   6    2.31    1.51
  -6   1  -7   74.09   10.16
  -6  -1   7   75.05   11.59
  -6  -1   7   70.13    7.77
  -6  -1  -7   71.58   11.36
  -6   1   7   62.85    9.94
   6  -1   7   70.11    8.82
  -6  -1  -7   66.02   11.64
  -6   1   7   68.21    8.87
  -6  -1   8  118.16    9.26
  -6   1  -8  151.77   14.95
  -6  -1   8  135.96   10.24
  -6  -1  -8  137.14   18.74
  -6  -1  -8  129.50    9.14
  -6   1   8  133.93    9.36
   6  -1   8  138.50    9.56
   6   1  -8  126.81    9.03
  -6   1   8  138.93   17.37
   6  -1  -9   13.72    3.24
  -6   1  -9   11.85    3.31
  -6   1  -9    8.50    2.22
  -6  -1   9   14.15    2.46
  -6  -1   9    9.49    2.28
  -6  -1  -9    8.02    2.12
   6   1  -9   10.18    2.25
   6  -1   9   10.96    2.16
  -6  -1  -9    8.18    2.10
  -6   1   9   10.70    1.76
   6  -1 -10    9.48    2.19
   6  -1 -10   15.56    3.76
  -6   1 -10   14.21    2.92
  -6   1 -10    8.03    2.20
  -6  -1  10   11.60    2.21
  -6  -1  10   15.21    2.61
  -6  -1 -10   12.06    2.51
   6   1 -10   12.19    2.56
   6  -1  10   14.02    2.62
  -6  -1 -10   14.52    2.90
  -6   1  10   13.89    2.26
   6  -1 -11   30.62    5.47
  -6  -1  11   33.13    4.79
  -6   1 -11   39.20    8.54
  -6  -1  11   38.56    5.24
   6  -1 -11   34.60    8.38
  -6  -1 -11   30.94    3.93
  -6  -1 -11   34.48    7.74
   6  -1  11   30.63    6.98
   6   1 -11   30.22    4.53
  -6   1  11   37.23    5.88
   6  -1 -12   71.56    6.98
   6  -1 -12   81.08   14.99
  -6   1 -12  100.00   10.45
  -6  -1  12   90.81   10.25
  -6  -1  12   92.18    9.02
  -6  -1 -12   90.90    9.76
   6  -1  12   81.70   13.79
   6   1 -12   67.49    8.61
  -6   1  12   82.95    9.67
   6  -1 -13    4.05    1.20
  -6   1 -13    1.01    1.34
  -6  -1  13    1.46    0.81
  -6  -1  13    2.40    0.82
  -6  -1 -13    3.08    1.52
   6  -1  13    2.55    1.26
   6   1 -13    2.73    1.05
  -6   1  13    1.47    0.80
  -6   1 -14   11.59    2.93
   6  -1 -14   13.37    3.38
  -6  -1  14   11.45    2.89
  -6  -1 -14    7.31    2.03
  -6  -1 -14    9.97    3.38
   6  -1  14   11.35    3.25
  -6   1  14    8.61    2.15
  -6   1 -15  175.67   21.65
  -6  -1  15  130.60   16.59
   6  -1 -15  155.37   23.96
   6  -1  15  150.69   18.30
  -6  -1 -15  163.22   25.80
  -6   1  15  151.61   19.50
  -6   1 -16   31.82    5.77
   6  -1 -16   25.94    6.98
  -6  -1  16   22.03    6.54
  -6  -1 -16   24.51    6.11
  -6  -1 -16   22.24    6.65
   6  -1  16   21.21    6.69
  -6   1  16   25.93    7.23
  -6   1 -17   47.13    8.67
   6  -1 -17   39.50   10.31
  -6  -1  17   40.87    8.53
   6  -1  17   43.28    8.76
  -6   1  17   42.52    7.53
  -6   1 -18   28.12    5.70
   6  -1 -18   26.73    4.46
  -6  -1  18   22.06    3.47
   6   1 -18   23.10    4.39
  -6  -1 -18   17.06    4.50
   6  -1  18   22.91    4.45
  -6   1  18   18.32    4.71
  -6   1 -19    9.85    2.87
  -6  -1  19    6.42    1.93
   6  -1 -19    3.11    1.48
   6  -1  19    7.79    2.51
   6   1 -19   10.26    3.05
  -6   1  19    2.54    1.12
   6   1  20  115.67   11.94
  -6  -1  20  145.00   12.56
   6  -1 -20  142.48   21.70
   6  -1  20  171.86   60.55
   6   1 -20  148.75   57.22
  -6   1  20  156.11   56.41
   6   1  21    7.23    2.89
  -6   1 -21   12.63    3.60
  -6  -1  21    6.25    2.43
   6  -1 -21   12.52    4.20
   6  -1  21   11.10    4.86
   6   1 -21   13.46    3.62
  -6   1  21   15.17    3.91
   6   1  22    7.10    3.13
  -6   1 -22   13.88    4.15
   6  -1 -22    9.40    4.37
  -6  -1  22   11.58    3.05
  -6   1  22   15.54    3.84
   6   1  23   40.66   11.72
  -6   1 -23   58.99   15.02
  -6  -1  23   55.78   13.87
  -6   1  23   58.32   13.64
   6   1  24   39.07   10.87
  -6   1 -24   49.05   11.64
  -6  -1  24   56.11   10.91
   6   1 -24   58.73   13.70
  -6   1  24   50.08   10.92
   6   1  25    1.01    1.23
  -6   1 -25    5.92    2.80
  -6  -1  25    1.11    0.77
   6   1 -25    9.84    2.93
  -6   1  25    6.47    3.58
   6   1  26    5.50    2.74
  -6   1 -26    8.76    3.45
   6  -1 -26   13.73    4.30
  -6  -1  26    8.94    2.78
   6   1 -26   13.17    3.60
  -6   1  26    9.33    3.10
   6  -1 -27    5.38    2.81
   6   1 -27    7.07    2.51
  -6   1  27    1.23    1.20
   6   1 -28    8.54    3.60
  -6   1  28    5.98    2.70
   6   1 -29    6.03    4.04
   6   1 -30    2.82    4.59
   6   2   0   24.24    4.90
  -6   2   0    8.18    3.10
  -6   2   0   10.23    2.54
   6  -2   0   15.57    3.49
  -6   2  -1  147.82   10.27
  -6  -2   1  162.27   22.41
  -6   2  -1  155.73   14.70
   6  -2  -1  163.99   11.13
  -6   2   1  159.28   11.11
  -6   2   1  158.20   13.58
   6   2   2  134.80    9.79
  -6  -2   2  133.56   20.62
  -6   2  -2  139.92   21.90
   6  -2  -2  138.40   10.32
  -6   2  -2  114.59   13.18
  -6   2   2  114.60   20.01
  -6   2   2  121.33    8.44
   6   2  -2  129.14   10.84
   6   2   3  275.26   18.16
  -6  -2   3  307.95   20.30
  -6   2  -3  329.58   21.49
   6  -2  -3  371.23   23.83
  -6   2  -3  295.61   18.53
   6   2  -3  266.46   18.01
  -6   2   3  314.00   20.11
   6   2   4   22.61    4.45
  -6  -2   4   24.22    4.40
  -6   2  -4   20.95    4.38
  -6   2  -4   16.05    4.05
  -6   2   4   24.62    4.30
   6   2  -4   23.14    5.00
   6   2   5   15.59    4.07
   6  -2  -5   17.92    4.04
  -6   2  -5   18.78    3.81
   6  -2  -5   15.35    6.00
  -6  -2   5   17.20    2.98
   6   2  -5   16.33    3.43
  -6   2   5   15.89    3.46
   6   2   6   51.72   11.41
   6  -2  -6   62.89    5.06
  -6   2  -6   73.74   11.22
  -6  -2   6   59.17    7.46
  -6  -2   6   64.37    7.84
  -6   2   6   64.30   10.41
   6  -2   6   64.11   11.99
   6   2  -6   67.25   11.20
   6   2   7   17.31    5.17
   6  -2  -7   23.20    4.19
  -6   2  -7   26.11    5.10
  -6  -2   7   17.97    5.53
  -6  -2   7   25.99    4.94
  -6   2   7   25.18    6.59
   6  -2   7   28.40    6.35
   6   2  -7   21.84    5.11
  -6   2   7   36.98    5.76
   6   2   8    4.73    1.97
  -6   2  -8    7.40    2.52
  -6  -2   8   11.12    3.47
   6  -2  -8    7.36    1.46
  -6  -2   8    8.51    1.89
  -6  -2  -8   14.32    3.12
  -6   2   8    7.79    1.81
  -6   2   8   12.48    2.34
   6   2   9  224.21   23.47
   6  -2  -9  240.03   24.43
  -6   2  -9  296.59   36.40
  -6  -2   9  249.88   25.72
  -6  -2   9  254.06   25.79
  -6  -2  -9  284.24   30.00
  -6   2   9  267.82   27.16
   6   2  -9  256.26   26.34
   6   2  10    5.62    2.23
   6  -2 -10    6.42    1.42
  -6   2 -10    5.57    1.82
  -6  -2  10    6.42    2.24
  -6  -2  10    4.03    1.02
  -6  -2 -10    5.79    1.82
  -6   2  10    2.54    0.88
   6   2 -10    7.55    1.55
   6   2  11  124.50   19.11
  -6  -2  11  153.70    6.13
  -6   2 -11  164.26   20.65
  -6  -2  11  134.70    4.32
  -6   2  11  138.47    4.42
   6   2 -11  126.13   16.34
  -6   2  11  145.31   12.27
   6   2  12  149.94   21.83
  -6  -2  12  162.99   20.30
  -6   2 -12  147.80   19.30
  -6  -2  12  134.54    4.53
  -6  -2 -12  149.70   11.16
   6   2 -12  162.66    6.63
  -6   2  12  139.94   14.08
   6   2  13  104.42   15.03
  -6  -2  13  102.58    8.89
  -6   2 -13  115.23   10.51
  -6  -2  13  121.77   15.50
   6   2 -13  125.55   12.16
  -6   2  13  111.29   15.81
   6   2  14   37.60    6.48
  -6   2 -14   34.62    6.19
   6  -2 -14   30.33    7.03
  -6  -2  14   26.59    6.87
  -6  -2  14   43.44    7.43
   6  -2  14   34.67    7.26
  -6  -2 -14   30.59    6.86
  -6   2  14   30.92    4.65
   6   2  15   60.70   10.56
  -6   2 -15   70.05   13.67
   6  -2 -15   76.04   13.18
  -6  -2  15   77.42   10.83
  -6  -2  15   57.87    8.75
   6  -2  15   71.07   14.15
  -6   2  15   69.66   13.57
   6   2  16    1.90    1.26
  -6   2 -16   -1.83    2.62
  -6  -2  16   -1.17    1.15
   6  -2 -16   -0.11    1.50
   6  -2  16    2.50    1.15
   6   2 -16   -5.42    5.60
  -6   2  16    0.71    0.87
   6   2  17   52.37   10.14
  -6   2 -17   70.42   10.85
   6  -2 -17   71.30   12.90
  -6  -2  17   50.51   12.02
   6   2 -17  131.29   34.26
  -6  -2 -17   75.06   14.72
   6  -2  17   75.34   13.38
  -6   2  17   76.40   11.81
   6   2  18    6.00    2.17
  -6   2 -18    8.44    3.03
  -6  -2  18   13.58    3.95
   6  -2 -18   14.78    4.42
   6  -2  18   20.37    6.04
   6   2 -18   17.67    5.46
  -6   2  18   15.89    4.10
   6   2  19   24.66    4.56
  -6   2 -19   28.64    4.70
  -6  -2  19   27.32    4.68
   6  -2 -19   29.18    4.34
   6  -2  19   31.73    5.00
   6   2 -19   34.64    5.88
  -6   2  19   30.24    3.85
   6   2  20   21.70    4.97
   6  -2 -20   30.34    6.62
  -6  -2  20   26.25    6.44
   6   2 -20   38.80   14.84
  -6  -2 -20   31.02    5.21
   6  -2  20   31.67    7.43
  -6   2  20   37.17    6.66
   6   2  21   16.84    4.13
  -6   2 -21   15.59    4.21
  -6  -2  21   14.98    4.58
   6  -2 -21   15.67    4.94
   6  -2  21   17.71    3.98
   6   2 -21   17.03    4.13
  -6   2  21   20.23    5.29
   6   2  22    6.60    2.98
  -6  -2  22    7.56    3.07
   6  -2 -22   10.77    2.60
   6  -2  22    9.19    3.98
   6   2 -22   12.18    2.95
  -6   2  22   11.27    2.30
   6   2  23   25.39    6.01
  -6   2 -23   39.23    9.26
   6  -2 -23   44.93   11.84
   6   2 -23   38.53   11.88
   6  -2  23   48.12   10.61
  -6   2  23   48.55   10.44
   6   2  24   25.21    6.99
  -6   2 -24   32.21   10.02
   6  -2 -24   34.19    8.91
   6   2 -24   49.31   10.84
  -6   2  24   35.70    9.72
   6   2  25    3.27    1.82
  -6   2 -25    3.62    1.89
   6  -2 -25    6.35    3.09
   6   2 -25    3.83    2.90
  -6   2  25    8.30    4.70
   6   2  26   42.01   14.61
  -6   2 -26   53.25   17.00
   6  -2 -26   63.20   19.12
   6   2 -26   79.26   21.33
  -6   2  26   54.33   17.24
   6  -2 -27   13.66   19.96
   6   2 -27   20.65    8.40
  -6   2  27   18.17    6.47
   6  -2 -28   15.07    5.59
   6   2 -28   14.85    3.11
  -6   2  28   11.73    3.09
   6   2 -29    8.48    4.04
   6   2 -30   12.37    2.74
  -6   3   0  223.52   24.09
  -6  -3   0  195.30   25.44
   6   3   1  163.41   11.55
  -6   3  -1  147.09   12.66
  -6  -3   1  176.34   24.29
   6   3  -1  139.66   10.29
  -6   3   1  149.42   12.87
  -6  -3  -1  159.83   19.09
   6   3   2  138.84   10.51
  -6   3  -2  156.27   11.42
   6  -3  -2  163.40   11.31
  -6  -3   2  172.56   21.51
  -6  -3  -2  173.32   12.12
  -6   3   2  161.99   23.36
   6   3   3  147.44   15.89
   6  -3  -3  135.35   13.97
  -6   3  -3  148.76   20.17
  -6  -3   3  141.40   23.48
   6   3  -3  140.40   15.01
  -6  -3  -3  139.47   22.19
  -6   3   3  142.73   19.76
   6   3   4   62.27   13.36
   6  -3  -4   77.66    8.37
  -6   3  -4   79.69   18.43
  -6   3   4   72.45   11.18
   6   3  -4   68.28   15.76
  -6  -3  -4   83.49   14.30
   6   3   5  112.12   22.63
   6  -3  -5  114.39   12.44
  -6   3  -5  114.60   14.74
  -6   3   5  113.87   12.20
   6   3  -5  121.79   12.99
  -6  -3  -5  123.64   14.23
   6   3   6   60.66   13.99
   6  -3  -6   68.40    9.84
  -6   3  -6   76.98    8.85
  -6   3   6   79.25   10.81
   6   3  -6   57.45   11.66
   6  -3   6   76.11    8.94
   6   3   7    2.71    1.50
   6  -3  -7    3.23    1.47
  -6   3  -7    6.91    2.02
  -6  -3   7    8.54    2.51
  -6   3   7   -0.20    1.27
   6   3  -7    4.37    1.27
   6  -3   7    7.10    1.89
  -6   3   7    6.60    1.34
   6   3   8   92.00   12.89
  -6   3  -8   86.41    6.09
   6  -3  -8   82.16    3.48
  -6   3   8   78.09   12.12
  -6  -3  -8   84.65   12.69
   6  -3   8   87.60   15.10
  -6   3   8   90.17   10.00
   6   3   9   65.50   10.95
   6  -3  -9   63.12    9.63
  -6   3  -9   69.66    4.53
  -6  -3   9   71.34    7.66
   6   3  -9   62.36   11.32
  -6  -3  -9   65.98   10.26
  -6   3   9   62.37    6.81
   6  -3   9   68.67   12.25
  -6   3   9   72.88   13.36
   6   3  10    8.68    2.84
   6  -3 -10    5.67    1.77
  -6   3 -10    5.32    1.80
  -6  -3  10    8.68    1.87
   6   3 -10    8.69    2.18
  -6  -3 -10    8.58    2.62
  -6   3  10    6.58    1.22
   6  -3  10   13.03    4.03
  -6   3  10   10.04    2.84
   6   3  11    4.57    2.58
   6  -3 -11    8.89    1.87
  -6   3 -11    7.12    2.32
  -6  -3  11    2.55    2.08
   6   3 -11    4.48    1.05
  -6  -3 -11    5.81    1.95
  -6   3  11    3.62    0.98
   6  -3  11    6.17    1.51
  -6   3  11    9.91    2.51
   6   3  12   47.89    8.09
  -6  -3  12   68.07   10.99
  -6   3 -12   61.37   12.45
   6  -3 -12   65.72   10.91
   6   3 -12   58.38   10.80
   6  -3  12   72.80   14.32
  -6   3  12   64.98   13.83
   6   3  13   11.53    3.16
  -6  -3  13   12.98    3.67
  -6   3 -13   14.90   10.48
   6  -3 -13    9.67    2.65
   6   3 -13   10.52    3.33
   6  -3  13   13.64    3.83
   6   3  14   32.82    9.38
  -6   3 -14   36.33    7.24
   6  -3 -14   36.46    6.48
  -6  -3  14   42.26    6.58
   6  -3  14   40.33    7.43
  -6   3  14   34.64    5.08
   6   3  15   14.56    3.46
  -6   3 -15   20.34    5.37
   6  -3 -15   20.36    5.38
  -6  -3  15   22.50    6.58
   6  -3  15   20.11    5.17
  -6   3  15   21.21    5.74
   6   3  16   12.06    3.68
  -6   3 -16   11.63    3.06
   6  -3 -16   14.51    4.84
  -6  -3  16   14.82    4.04
   6  -3  16   12.45    4.00
   6   3  17   16.40    4.01
  -6   3 -17   17.62    5.27
   6  -3 -17   18.80    6.00
  -6  -3  17   24.20    5.09
  -6  -3 -17   17.25    4.64
   6  -3  17   23.31    4.12
   6   3  18   10.84    3.73
  -6   3 -18   14.04    3.44
   6  -3 -18    8.22    2.70
  -6  -3 -18   10.91    4.02
   6   3  19    1.72    1.39
  -6   3 -19    1.06    1.15
   6   3 -19    3.00    3.10
   6  -3  19    5.00    2.34
  -6   3  19    2.66    1.57
   6   3  20   54.88   10.06
  -6   3 -20   67.86   13.57
   6   3 -20   84.42   14.05
  -6  -3 -20   63.99   11.18
  -6   3  20   66.05   12.46
   6   3  21    4.36    2.27
   6  -3 -21    3.12    1.56
   6   3 -21    9.75    2.89
  -6  -3 -21    0.66    0.81
  -6   3  21   -0.58    2.08
   6   3  22    1.66    1.14
  -6   3 -22    0.92    1.52
   6  -3 -22    0.95    1.02
   6   3 -22   -2.29    2.29
  -6  -3 -22   -0.30    1.45
  -6   3  22   -0.87    2.22
   6   3  23   20.37    5.86
   6  -3 -23   25.09    6.81
   6   3 -23   25.70    7.56
  -6   3  23   31.83    7.78
   6   3  24   13.50    4.01
  -6   3 -24   69.76   12.95
   6  -3 -24   16.71    4.80
   6   3 -24   21.82    6.44
  -6   3  24   20.59    6.75
   6   3  25    2.36    1.83
  -6   3 -25    4.21    2.27
   6  -3 -25   -0.57    1.86
   6   3 -25    2.52    1.55
  -6   3  25    1.32    2.46
  -6   3 -26    6.00    3.33
   6  -3 -26    4.01    2.30
   6   3 -26    7.28    3.24
  -6   3  26    5.92    8.82
   6   3 -27    4.35    2.45
  -6   3  27    3.25    4.97
   6   3 -28   15.16    3.55
  -6   3  28   14.45    3.73
   6   3 -29    0.78    1.64
  -6   4   0    1.60    0.90
  -6  -4   0    9.27    2.45
   6   4   1  131.91   14.19
  -6   4  -1  139.76   14.74
   6   4  -1  143.35   15.40
  -6   4   1  131.18   22.21
  -6  -4  -1  139.92   25.28
   6   4   2   72.40   11.69
  -6   4  -2   72.07    8.63
  -6   4   2   65.34    6.88
  -6  -4  -2   63.95    9.31
   6   4   3   91.41   12.10
  -6   4  -3   99.43    8.43
   6   4  -3  102.05   13.70
  -6   4   3   95.05   14.39
  -6  -4  -3   99.80   11.51
   6   4   4   91.75   16.59
  -6  -4   4  106.86   13.13
  -6   4  -4  106.51   12.20
  -6   4   4  110.42   10.24
   6   4  -4  104.17   15.29
   6   4   5   20.29    4.14
  -6  -4   5   20.31    3.90
  -6   4  -5   16.68    4.66
   6  -4  -5   36.17    8.99
  -6   4   5   18.29    5.40
   6   4  -5   15.50    3.90
   6   4   6   41.35    7.37
  -6   4  -6   38.25   11.37
  -6  -4   6   43.88    6.80
   6   4  -6   47.48    8.70
  -6   4   6   37.82   10.90
  -6  -4  -6   39.38    5.35
   6   4   7   18.10    4.26
  -6   4  -7   23.59    7.06
  -6  -4   7   19.88    3.83
   6   4  -7   17.86    3.88
  -6   4   7   12.99    4.38
  -6  -4  -7   18.55    4.31
   6   4   8   51.95    8.35
  -6   4  -8   51.47   17.00
   6  -4  -8   39.94    7.06
  -6  -4   8   58.66    9.58
  -6   4   8   52.01    5.69
   6  -4   8   54.99    9.40
  -6   4   8   55.63    6.95
   6   4   9  136.31   19.36
  -6   4  -9  140.72   24.63
  -6  -4   9  129.06   19.32
   6  -4  -9  108.74   18.62
  -6  -4  -9  136.87   19.65
  -6   4   9  116.59   18.15
   6  -4   9  149.44   21.35
   6   4  10   74.02   16.29
   6  -4 -10   80.25   13.52
  -6   4 -10   90.80   16.00
  -6  -4  10   80.74   13.49
  -6   4  10   88.94    8.87
   6   4 -10   80.23   14.95
   6  -4  10   87.50   14.61
   6   4  11   46.85    8.69
  -6  -4  11   58.04    8.51
  -6   4 -11   71.62   15.83
   6  -4 -11   53.65    9.05
   6   4 -11   44.49   10.93
   6  -4  11   58.41    9.84
  -6   4  11   60.50    8.93
   6   4  12   36.85    7.29
  -6   4 -12   28.97    6.05
   6  -4 -12   25.67    6.18
  -6  -4  12   32.47    7.14
   6   4 -12   30.51    7.67
  -6  -4 -12   36.46    6.72
   6  -4  12   30.47    6.97
  -6   4  12   32.60    6.48
   6   4  13   42.23    8.05
  -6  -4  13   35.67    6.84
  -6   4 -13   32.54    6.21
   6  -4 -13   25.09    4.81
   6   4 -13   29.62    6.16
   6  -4  13   39.55    8.31
  -6   4  13   34.10    5.72
   6   4  14    5.95    1.89
  -6  -4  14   11.13    2.97
  -6   4 -14    9.94    3.36
   6  -4 -14    6.29    1.83
   6   4 -14    3.56    0.96
   6  -4  14   10.27    3.30
  -6   4  14    8.58    2.24
   6   4  15  100.46   15.57
  -6   4 -15  103.90   18.65
   6  -4 -15  102.02    8.23
  -6  -4  15  102.25   14.36
  -6  -4 -15   94.39   12.51
   6  -4  15   98.39   17.66
  -6   4  15   88.93   10.73
   6   4  16   31.01    4.62
  -6   4 -16   33.37    8.15
   6  -4 -16   27.69    6.16
  -6  -4  16   38.49    6.07
  -6  -4 -16   33.03    6.79
   6  -4  16   36.58    7.46
  -6   4  16   31.92    6.45
   6   4  17   14.35    3.09
  -6   4 -17   13.03    2.89
   6  -4 -17   13.94    2.99
  -6  -4  17   18.11    3.57
   6  -4  17   15.67    3.75
   6   4  18    1.87    1.62
  -6   4 -18    6.44    2.43
   6  -4 -18    4.56    2.04
  -6  -4  18    4.98    2.02
   6  -4  18    5.29    2.82
   6   4  19    2.33    2.11
  -6   4 -19    5.99    2.41
   6  -4 -19    5.08    2.12
   6  -4  19    5.44    2.60
  -6   4  19    3.14    1.88
   6   4  20   23.32    6.08
  -6   4 -20   28.71    7.29
   6  -4 -20   29.91    7.72
  -6  -4 -20   27.23    6.05
   6  -4  20   35.44    8.43
  -6   4  20   26.03    7.93
   6   4  21    2.84    1.91
   6  -4 -21    3.42    1.74
   6   4 -21    8.41    4.16
  -6  -4 -21    2.69    1.73
   6  -4  21    5.16    2.43
  -6   4  21    2.08    1.75
   6   4  22    2.99    1.63
  -6   4 -22    5.14    3.13
   6  -4 -22    2.58    1.53
   6   4 -22    1.97    1.43
  -6  -4 -22    3.80    2.40
  -6   4  22    5.33    2.71
   6   4  23    8.36    4.21
   6  -4 -23   13.69    3.86
   6   4 -23   18.69    6.37
  -6  -4 -23   15.41    4.76
  -6   4  23   13.98    4.68
   6   4  24    3.43    2.05
  -6   4 -24    3.67    2.01
   6   4 -24   12.39    5.78
   6  -4  24    6.11    3.64
  -6   4  24    4.37    2.58
  -6   4 -25   20.28    9.26
   6   4 -25   23.90    8.72
  -6   4  25   20.10    7.70
   6   4 -26   19.64    7.52
  -6   4  26   21.22    6.24
   6   4 -27    2.70    4.06
  -6   4  27    1.67    2.56
   6   4 -28   14.98    4.66
   6   5   0  329.73   30.80
  -6   5   0  318.18   37.56
   6   5   1   14.95    3.69
  -6   5  -1   17.00    4.84
  -6   5   1   17.24    4.06
   6   5   2   29.19    7.57
  -6   5  -2   36.60    8.82
  -6  -5   2   38.00    7.22
  -6   5   2   38.15    7.93
  -6  -5  -2   34.26    6.34
   6   5   3   81.14   15.05
  -6   5  -3   76.00    9.72
  -6  -5   3   84.79   14.79
  -6   5   3   79.27   13.67
  -6  -5  -3   76.39   11.76
   6   5   4  128.84   21.35
   6  -5  -4  128.91   15.40
  -6   5  -4  124.84   14.63
  -6   5   4  148.36   18.53
   6   5  -4  129.64   12.89
   6   5   5    5.54    2.57
  -6   5  -5    3.68    1.71
   6  -5  -5    2.31    1.21
   6   5  -5    2.02    2.08
  -6   5   5   -0.48    1.82
  -6  -5  -5    5.27    2.69
   6   5   6  130.65   23.55
  -6   5  -6  149.68   18.57
   6   5  -6  146.84   14.32
  -6   5   6  137.83   14.20
   6   5   7   19.19    5.91
  -6  -5   7   25.27    6.17
  -6   5  -7   20.76    5.36
  -6   5   7   18.74    4.11
   6   5  -7   18.00    4.68
   6   5   8   95.74   14.90
  -6  -5   8   98.17   12.75
  -6   5  -8   91.43   10.95
  -6   5   8   68.95   14.47
   6   5  -8   76.74   15.18
   6   5   9    9.29    2.56
  -6   5  -9   10.75    2.65
  -6  -5   9   11.38    2.99
  -6   5   9    6.41    1.82
  -6   5   9   10.78    3.16
   6   5  10    5.57    2.30
  -6   5 -10    7.34    1.80
  -6  -5  10    6.45    1.75
   6   5 -10    7.50    1.87
   6   5  11   20.33    5.53
  -6  -5  11   18.26    4.92
  -6   5 -11   17.37    5.13
  -6  -5 -11   10.47    3.14
   6   5 -11   13.73    4.12
  -6   5  11   14.79    4.59
   6   5  12   17.45    4.37
  -6   5 -12   19.96    5.09
  -6  -5  12   21.23    5.58
   6   5 -12   15.93    4.20
  -6   5  12   19.75    5.11
   6   5  13   17.43    4.55
  -6   5 -13   22.47    4.50
  -6  -5  13   25.34    6.09
   6   5 -13   20.49    6.08
   6   5  14   41.89    5.26
  -6   5 -14   45.74    6.85
  -6  -5  14   40.69    7.45
   6  -5  14   44.37    6.63
  -6   5  14   44.15    6.30
   6   5  15    2.72    1.30
  -6   5 -15    3.54    1.85
  -6  -5  15    6.75    2.83
   6  -5  15    2.77    1.28
  -6   5  15    4.24    2.12
   6   5  16   45.80    7.73
  -6   5 -16   59.79   11.18
  -6  -5  16   50.11    7.72
   6  -5  16   54.58   10.38
  -6   5  16   40.86    8.72
   6   5  17    6.87    3.28
  -6   5 -17   10.76    3.64
  -6  -5  17    6.66    2.70
   6  -5  17    9.99    2.36
  -6   5  17    9.20    4.09
   6   5  18   34.71    7.88
  -6   5 -18   36.35   12.54
  -6  -5  18   42.76    9.29
   6  -5  18   51.52   10.72
  -6   5  18   39.83   10.11
   6   5  19   29.47    7.48
  -6   5 -19   31.40   14.66
  -6  -5  19   35.72    8.63
   6  -5  19   50.12    9.86
   6   5  20  101.65   21.78
  -6   5 -20  129.80   28.11
   6  -5  20  152.27   33.51
  -6   5  20  110.51   25.12
   6   5  21   28.47   13.37
  -6   5 -21   26.32    8.91
   6   5 -21  131.21   45.76
   6  -5  21   46.81   10.32
  -6   5  21   28.93   14.13
   6   5  22   19.20    7.36
   6  -5  22   27.40    8.24
   6   5  23   22.12    8.93
  -6  -5 -23   27.94    9.76
   6  -5  23   39.79   11.15
   6   5 -24   42.61   13.43
   6  -5  24   46.86   13.84
  -6   5  24   42.92   12.44
   6   5 -25    1.03    1.97
  -6   5  25   -0.10    2.09
   6   5 -26    3.69    1.69
  -6   5  26    4.59    1.86
  -6   6   0    3.16    1.16
  -6  -6   0    3.41    1.49
   6   6   1   16.78    3.76
  -6   6  -1   18.60    4.49
  -6   6   1   18.33    5.35
  -6  -6  -1   13.48    4.73
   6   6   2   16.34    3.19
  -6  -6   2   16.05    4.13
  -6   6  -2   18.60    4.14
  -6   6   2   17.98    5.02
   6   6  -2   12.05    3.97
   6   6   3   51.66   10.94
  -6   6  -3   62.20   10.27
  -6  -6   3   61.52   11.65
  -6   6   3   63.36   14.04
   6   6   4   67.49   11.98
  -6   6  -4   52.97   11.33
   6   6  -4   53.18   11.38
  -6   6   4   61.23    6.22
   6   6   5   19.09    5.15
  -6   6  -5   11.63    3.51
   6   6  -5   18.87    5.32
  -6   6   5   10.96    3.19
   6   6   6   40.91    7.02
  -6   6  -6   44.12    8.34
  -6  -6   6   38.80    7.63
   6   6  -6   42.73   10.11
  -6   6   6   37.74    5.77
  -6  -6  -6   51.08    9.37
   6   6   7   25.85    4.16
  -6  -6   7   24.59    4.33
  -6   6  -7   24.29    4.34
  -6   6   7   17.06    5.41
   6   6  -7   23.85    5.09
   6  -6   7   24.29    5.14
   6   6   8   50.45    8.36
  -6  -6   8   59.04   10.21
  -6   6  -8   51.58   10.50
  -6   6   8   39.90   11.43
   6   6  -8   46.09    9.02
   6  -6   8   52.94   11.37
   6   6   9   68.13   11.68
  -6   6  -9   70.43   12.44
  -6  -6   9   77.28   11.41
   6  -6   9   73.90   11.71
   6   6  10   69.67   10.17
  -6   6 -10   72.29   11.60
   6   6  11   66.82    9.74
  -6   6 -11   75.83   16.21
   6   6  12   47.33    6.05
  -6   6 -12   50.27    7.23
  -6  -6  12   47.92    6.11
   6   6 -12   39.37   17.49
   6   6  13  104.08   17.40
  -6   6 -13   96.93   19.77
  -6  -6  13   96.62   19.69
   6   6 -13   77.30   17.28
   6   6  14   48.42    9.14
  -6   6 -14   51.78   10.10
  -6  -6  14   53.19   10.43
  -6   6  14   40.38    8.94
   6   6  15   47.05    9.84
  -6   6 -15   43.98    9.71
  -6  -6  15   43.61   10.37
  -6  -6 -15   43.17   10.34
  -6   6  15   33.62    7.18
   6   6  16    5.40    2.67
  -6   6 -16   10.23    5.20
  -6  -6  16    7.43    3.31
   6  -6  16    5.39    2.33
  -6   6  16    4.91    3.00
   6   6  17   10.17    4.71
  -6   6 -17    9.69    4.24
  -6  -6  17    7.05    3.42
  -6  -6 -17   13.36    3.44
   6  -6  17   16.93    4.12
  -6   6  17   11.19    2.84
   6   6  18    7.15    3.65
  -6   6 -18    7.07    3.41
  -6  -6  18    6.87    3.73
  -6  -6 -18    7.15    3.97
   6  -6  18    9.86    3.17
  -6   6  18    7.53    3.72
   6   6  19    2.45    2.73
  -6   6 -19    4.24    2.68
  -6  -6  19    4.92    3.13
   6  -6  19   -1.44    2.13
  -6   6  19    1.34    1.13
   6   6  20    7.51    2.97
  -6   6 -20   15.29    5.78
  -6  -6  20   13.06    4.52
  -6  -6 -20    9.87    4.35
  -6   6  20    7.92    3.35
   6   6  21   18.00    7.45
  -6   6 -21   24.48    9.29
  -6   6  21   20.26    8.16
   6   6 -22    6.18    3.23
  -6  -6 -22   14.95    3.61
  -6   6  22   21.57    6.80
  -6   6 -23    7.89    3.72
   6  -6  23    9.05    3.61
  -6   6  23   11.13    3.06
   6   6 -24    0.93    1.53
  -6   6  24   -0.35    2.50
  -6   6  25    7.96    3.38
   6   7   0    0.13    1.20
  -6   7   0    3.09    2.29
   6   7   1   46.57    8.47
  -6   7  -1   48.00    4.43
  -6   7   1   42.58    9.13
   6   7   2   11.97    5.13
  -6   7  -2   17.25    7.43
  -6  -7   2   14.96    3.59
  -6   7   2   16.23    5.10
   6   7   3   16.45    5.19
  -6   7  -3   15.83    3.57
  -6   7   3   15.66    4.09
  -6  -7  -3   15.05    4.03
   6   7   4   28.89    6.49
  -6   7  -4   25.91    4.86
  -6  -7   4   23.92    5.25
  -6   7   4   24.26    6.92
   6   7   5   30.58    6.34
  -6  -7   5   26.65    6.34
  -6   7  -5   29.39    6.16
  -6   7   5   22.11    5.69
   6   7  -5   22.99    6.44
   6   7   6   21.17    4.67
  -6   7  -6   10.97    2.87
   6   7  -6   14.12    4.03
  -6   7   6   11.49    2.87
   6   7   7   24.92    5.83
  -6   7  -7   21.77    4.51
   6   7  -7   18.15    5.72
  -6   7   7   14.47    4.32
   6  -7   7   28.67    7.03
   6   7   8  135.12   28.15
  -6   7  -8  160.39   22.14
   6   7  -8  104.57   22.64
   6  -7   8  148.18   25.89
   6   7   9    5.00    2.48
   6  -7  -9    6.15    3.06
  -6   7  -9    4.84    2.65
  -6  -7   9    5.49    2.94
   6   7  -9    3.09    1.84
   6  -7   9   10.00    4.01
   6   7  10   16.49    3.81
   6  -7 -10   18.24    6.16
  -6   7 -10   11.81    2.94
  -6  -7  10    7.82    3.68
   6   7 -10   10.15    2.50
   6  -7  10   11.25    3.26
   6   7  11    9.37    4.09
  -6  -7  11    7.58    3.82
  -6   7 -11    8.82    3.73
   6  -7 -11    1.40    2.86
  -6  -7 -11   10.28    4.78
   6   7 -11    8.07    3.63
   6  -7  11   11.51    3.33
   6   7  12   -1.47    2.34
  -6  -7  12    1.79    2.64
  -6   7 -12    3.64    1.96
   6  -7 -12    9.09    5.84
  -6  -7 -12    3.78    2.08
   6   7 -12    0.38    1.38
   6  -7  12    2.34    1.81
   6   7  13    4.22    2.79
  -6   7 -13    7.31    4.41
  -6  -7  13    4.17    2.52
   6  -7 -13   -7.61    9.16
   6  -7  13   12.34    2.86
   6   7  14   47.73   11.61
  -6   7 -14   38.35   10.44
  -6  -7  14   42.21    9.73
   6  -7  14   59.48   13.06
  -6   7  14   44.01   10.22
   6   7  15   53.07   11.44
  -6   7 -15   39.66   10.26
  -6  -7  15   47.88   10.65
   6  -7  15   54.47   11.34
   6   7  16   71.51   15.56
  -6   7 -16   61.63   17.79
   6  -7  16   71.36   18.08
   6   7  17    2.37    2.14
  -6   7 -17   -0.51    2.25
   6  -7  17    5.43    3.91
   6   7  18    6.53    2.78
  -6   7 -18   14.58    5.90
  -6  -7  18   15.63    6.66
   6  -7  18   26.74    7.70
  -6   7  18   12.83    4.92
   6   7  19   43.92   14.13
  -6   7 -19   52.04   17.26
   6  -7  19   70.83   17.25
  -6   7  19   48.78   14.61
  -6   7 -20  113.50   35.21
   6  -7  20  154.37   37.91
  -6   7  20  127.67   32.40
  -6   7 -21   13.38    4.21
  -6  -7  21   16.58    5.01
   6  -7  21   15.91    3.80
  -6   7  21   10.89    3.75
  -6   7  22    7.03    2.71
   6   8   0    4.88    2.83
  -6   8   0    2.02    1.63
  -6  -8   0    3.04    2.78
   6   8   1   41.42   11.80
  -6   8  -1   74.15   16.22
   6   8  -1   47.24   13.50
  -6   8   1   61.75   15.13
   6   8   2   12.15    3.10
  -6   8  -2   14.31    3.83
  -6  -8   2   12.17    3.84
  -6   8   2   10.64    2.84
   6   8   3   14.55    3.69
  -6   8  -3   21.48    5.50
  -6   8   3   15.50    4.54
   6   8   4    8.45    3.97
  -6   8  -4   12.65    2.68
  -6   8   4   11.90    2.83
  -6  -8  -4   13.86    4.07
   6   8   5    1.56    1.69
  -6   8  -5   -0.13    2.51
   6   8  -5    2.65    1.40
   6  -8   5    2.29    1.46
   6   8   6    2.51    2.18
  -6   8  -6    7.39    3.20
  -6  -8   6    6.49    3.32
   6   8  -6    2.84    1.59
   6  -8   6    2.65    1.60
   6   8   7   -0.14    2.26
  -6  -8   7    3.24    1.70
  -6   8  -7   -1.60    2.25
   6  -8  -7   -3.21    2.52
  -6  -8  -7    1.26    1.60
   6   8  -7    0.51    0.70
   6  -8   7    3.44    1.91
   6   8   8    6.65    3.37
  -6   8  -8    8.62    3.08
   6   8  -8    2.75    1.61
   6  -8   8    2.81    1.82
   6   8   9   61.08   15.43
  -6   8  -9   60.59   15.12
   6  -8   9   75.15   16.92
   6   8  10   24.80    7.09
  -6   8 -10   30.16   14.54
  -6  -8  10   28.05    8.84
  -6  -8 -10   26.41    8.53
   6   8  11   -3.28    2.15
  -6   8 -11    2.60    2.46
  -6  -8  11    1.39    1.97
   6  -8 -11    3.22    1.98
   6   8  12   23.88    8.65
  -6   8 -12   24.49    9.46
  -6  -8  12   24.21    9.80
   6  -8  12   31.91    9.09
   6   8  13   42.53   11.95
  -6   8 -13   40.56   13.91
  -6  -8  13   40.00   12.09
   6  -8  13   47.33   12.68
   6   8  14   18.01    6.83
  -6   8 -14   22.84    9.49
  -6  -8  14   20.65    8.60
   6  -8 -14   -0.16    4.44
   6  -8  14   26.15    8.86
   6   8  15   17.63    6.75
  -6   8 -15   18.14    7.20
  -6  -8  15   18.79    7.09
   6  -8 -15    1.73    5.11
  -6  -8 -15   20.29    7.65
   6   8  16    1.70    2.71
  -6  -8  16   -1.08    2.27
   6  -8 -16   -4.97    9.81
  -6  -8 -16    4.27    3.06
   6  -8  16    4.83    2.94
   6   8  17    4.14    1.78
  -6   8 -17    6.03    3.19
  -6  -8  17    7.39    2.77
  -6  -8 -17    6.40    3.01
   6  -8  17   10.43    2.83
  -6   8 -18   17.48    6.18
  -6  -8 -18   15.44    5.39
   6  -8  18   23.62    6.68
  -6   8  18   21.03    7.23
  -6   8  19    3.26    4.83
   6   9   0    6.98    3.23
  -6   9   0    7.52    4.42
   6   9   1   65.98   23.44
  -6   9  -1   91.84   28.00
   6   9  -1   60.98   21.42
  -6   9   1   84.96   29.43
   6   9   2   12.29    4.53
  -6   9  -2   17.11    6.14
   6   9   3    9.62    3.94
  -6   9  -3   10.72    4.23
  -6  -9   3   16.39    6.85
   6   9  -3    2.90    1.91
   6   9   4    5.43    3.20
  -6   9  -4   10.86    4.28
  -6  -9  -4    6.06    3.02
   6   9   5   28.74    8.82
  -6   9  -5   33.08   10.13
   6   9  -5   20.01    8.88
   6   9   6   13.20    5.07
  -6   9  -6   38.52   14.87
   6   9  -6   14.24    5.51
   6   9   7   18.42    6.59
  -6   9  -7   21.66    8.29
   6   9  -7   13.47   19.87
   6  -9   7   25.93    7.23
   6   9   8   37.48   10.90
  -6   9  -8   40.30   12.48
  -6  -9   8   36.92   11.28
   6   9   9   14.27    3.47
  -6   9  -9   14.63    4.61
  -6  -9   9   12.96    3.86
   6   9  10    1.66    2.66
  -6   9 -10   -0.88    2.87
  -6  -9  10    6.76    3.08
   6  -9 -10   -1.05    2.85
   6  -9  10    2.09    4.08
   6   9  11   18.06    4.53
  -6   9 -11   23.59    6.98
   6  -9 -11   -0.75    2.71
   6   9  12   25.96    7.30
  -6   9 -12   38.81   12.90
   6  -9 -12   -1.20    2.90
   6   9  13   27.82    7.51
  -6   9 -13   27.11    7.78
   6  -9 -13   69.18   15.12
   6  -9  13   39.14   10.28
  -6   9 -14   28.18   11.68
   6  10   0    3.79    2.14
   6  10   1   32.32   10.89
  -6 -10   1   46.59   10.69
   6  10  -1   35.85   11.12
   6  10   2   22.13    7.40
   6  10  -2   25.89    7.40
   6  10   3   20.90    6.86
   6  10   4    5.31    3.05
   6  10   5   21.27    7.03
   6  10   6   -0.50    2.47
   6  10   7   10.77    2.81
  -6 -10  -7    8.49    3.89
   6 -10   7   10.87    4.73
   6  10   8    8.40    3.36
  -7   0   0    1.99    0.96
   7   0  -1   12.61    3.62
  -7   0  -1   10.95    2.77
  -7   0   1   10.56    3.26
   7   0  -2   43.08   10.38
  -7   0  -2   47.07    7.11
  -7   0   2   48.34    8.26
   7   0  -2   50.70   10.22
   7   0  -3   14.61    4.08
  -7   0  -3   11.79    3.21
  -7   0   3   11.68    3.11
   7   0  -3    9.48    2.41
   7   0  -4   90.63   20.51
  -7   0  -4  123.24   16.08
  -7   0  -4   88.47   16.06
   7   0  -4  108.86   13.01
  -7   0  -5   28.33    6.63
  -7   0   5   24.02    5.74
   7   0  -5   31.26    6.85
   7   0  -6   -2.37    1.74
  -7   0  -6    3.19    1.45
  -7   0  -6    2.35    1.18
  -7   0   6    1.36    0.94
   7   0  -6    4.81    2.20
   7   0  -7    8.31    2.17
  -7   0  -7    4.79    2.57
  -7   0  -7    1.59    0.84
  -7   0   7    3.58    1.16
   7   0  -7   -0.64    4.31
   7   0  -8   21.46    5.62
  -7   0  -8   38.34    9.49
  -7   0   8   29.31    5.82
  -7   0   8   24.60    6.61
   7   0  -9   23.03    6.79
  -7   0  -9   38.62    9.75
  -7   0   9   38.48    5.14
  -7   0   9   30.83    6.35
   7   0 -10   50.70    9.04
  -7   0 -10   64.27   10.98
  -7   0  10   53.33    9.23
  -7   0 -11    5.28    2.41
   7   0 -11    2.31    6.73
  -7   0  11    7.79    1.99
  -7   0 -12   -0.06    2.33
   7   0 -12   -0.29    1.68
  -7   0  12    0.17    0.53
  -7   0 -13   39.50   16.79
   7   0 -13   47.69   11.02
  -7   0  13   38.28   15.09
  -7   0 -14   18.43    4.89
   7   0 -14   16.81    3.74
  -7   0  14   16.43    3.06
  -7   0 -15   10.03    3.83
   7   0 -15    9.69    3.71
  -7   0  15    6.86    2.88
  -7   0 -16   -1.93    1.82
   7   0 -16   -0.50    1.89
  -7   0  16    2.69    1.47
  -7   0 -17   -0.48    1.15
   7   0 -17    0.66    0.96
  -7   0  17    2.33    1.44
  -7   0 -18   80.28   21.88
   7   0 -18   80.81   18.02
  -7   0  18   61.55   14.59
  -7   0 -19    4.32    2.11
  -7   0 -20   49.28   11.81
   7   0 -21    3.61    2.43
  -7   0 -22   53.41   15.98
   7   0 -22   57.61   20.27
   7   0 -23   11.65    4.33
   7   0  24    2.98    4.49
   7   0 -24    9.63    2.43
   7   1   0    5.33    2.05
  -7   1   0    8.61    2.25
  -7   1   0    6.78    2.08
  -7   1  -1   37.91    9.39
  -7   1  -1   28.02    7.53
  -7  -1   1   29.38    5.22
   7   1  -1   26.64    7.03
  -7  -1  -1   30.24    6.95
  -7   1   1   35.95    7.18
  -7   1   1   30.46    4.99
   7   1   2   17.08    5.34
   7  -1  -2   23.28    5.20
  -7   1  -2   25.39    5.26
  -7   1  -2   19.58    4.80
  -7  -1   2   18.80    5.02
  -7  -1  -2   25.55    5.91
  -7   1   2   23.49    5.37
  -7   1   2   22.49    5.21
   7   1  -2   20.07    6.03
  -7  -1   3   29.58    5.81
  -7   1  -3   28.77    7.82
   7  -1  -3   28.65    6.95
   7   1  -3   29.26    8.76
  -7   1   3   26.99    7.07
  -7   1   3   27.56    7.99
   7   1   4  299.73   28.29
  -7  -1   4  355.79   48.80
  -7   1  -4  373.67   51.47
   7  -1  -4  361.36   49.79
   7   1  -4  330.90   30.76
  -7   1   4  342.82   32.15
  -7   1   4  378.07   51.68
   7   1   5   27.05    6.47
  -7   1  -5   19.23    4.80
   7  -1  -5   15.42    6.78
  -7  -1  -5   19.46    5.30
  -7   1   5   17.43    4.23
  -7   1   5   19.17    4.84
   7  -1   5   23.58    6.37
   7   1   6    2.22    1.66
  -7  -1   6    2.13    0.97
  -7   1  -6    2.37    1.83
   7  -1  -6   -6.30    3.16
  -7  -1  -6    0.70    0.99
   7   1  -6    1.17    1.06
   7  -1   6    3.73    1.34
   7  -1  -7  105.76   17.33
   7   1   7  132.97   26.77
  -7   1  -7  151.61   27.79
   7  -1  -7  497.08  103.20
   7   1  -7  131.82   24.52
   7  -1   7  150.74   15.31
   7  -1  -8   31.11    9.48
   7   1   8   35.60    6.42
  -7   1  -8   53.20    8.87
   7  -1  -8   53.42    9.29
   7   1  -8   29.53    7.01
  -7  -1  -8   32.97   10.08
   7  -1   8   38.10    8.78
  -7   1   8   46.26    6.65
   7   1   9   21.24    5.69
   7  -1  -9   16.21    3.53
  -7  -1   9   25.07    4.52
  -7   1  -9   29.85    7.16
  -7  -1  -9   23.90    4.70
   7   1  -9   20.86    5.74
   7  -1   9   26.31    6.82
  -7   1   9   25.06    4.51
   7   1  10   12.26    3.54
  -7  -1  10   22.75    3.16
  -7   1 -10   28.21    4.95
   7  -1 -10   25.92    5.46
   7   1 -10   16.88    4.46
   7  -1  10   22.93    5.39
  -7   1  10   20.75    5.40
   7   1  11   22.57    5.57
  -7   1 -11   26.61    4.21
   7  -1 -11   22.88    4.97
  -7  -1  11   27.57    4.16
  -7  -1 -11   19.72    5.97
  -7   1  11   26.24    5.87
   7   1  12    3.34    2.32
  -7   1 -12    8.31    2.62
   7  -1 -12    4.24    1.84
  -7  -1  12    3.51    1.16
  -7   1  12    3.12    1.20
   7   1  13   10.07    3.91
  -7   1 -13   15.13    3.84
  -7   1  13    9.57    3.30
   7   1  14   37.90    9.61
  -7   1 -14   59.80   12.02
  -7   1  14   42.78    5.51
   7   1  15   14.98    4.00
  -7   1 -15   21.63    4.85
  -7   1  15   17.12    4.07
   7   1  16   24.63    5.96
  -7   1 -16   44.02   10.07
   7   1 -16   48.68   11.05
  -7   1  16   38.49    7.20
   7   1  17    4.08    3.03
  -7   1 -17    0.30    1.65
   7  -1 -17    0.98    1.23
   7   1 -17    2.38    1.80
  -7   1  17    1.50    1.36
   7   1  18    5.94    2.84
  -7   1 -18   12.06    3.54
   7  -1 -18   11.01    3.85
  -7   1  18   12.49    3.69
   7   1  19  108.43   22.94
  -7   1 -19  138.83   64.32
   7  -1 -19  122.10   56.13
  -7   1  19  100.18   21.62
   7   1  20   15.62    4.73
  -7   1 -20   19.90    7.78
   7  -1 -20   25.97    6.63
  -7   1  20   22.11    6.56
   7   1  21   16.49    5.50
  -7   1 -21   27.35    8.53
   7  -1 -21   26.04    8.96
  -7   1  21   21.53    6.97
   7   1  22    8.12    3.10
  -7   1 -22   13.10    4.80
   7  -1 -22   11.27    4.55
   7   1 -22   15.19    5.68
   7   1  23    4.47    2.32
   7  -1 -23    5.56    2.75
   7   1  24    9.76    3.28
  -7   1 -24   12.14    3.18
   7   2   0   -0.56    2.16
  -7   2   0    1.03    0.99
  -7  -2   0    2.50    1.19
  -7   2  -1   44.44    7.42
   7   2  -1   37.20    7.88
  -7   2   1   37.52    5.77
  -7  -2  -1   41.99    6.96
   7  -2  -2  127.28   12.50
  -7   2  -2  150.51   18.54
  -7   2   2  106.97   17.79
   7   2  -2  115.56   18.45
  -7  -2   3   57.93   10.64
  -7   2  -3   67.83   11.33
   7  -2  -3   65.11   13.67
  -7   2   3   66.47   11.88
   7   2  -3   59.52   14.33
   7   2   4   96.73   19.93
  -7   2  -4  113.20   17.09
   7  -2  -4  120.56   12.16
  -7  -2   4   99.54   15.56
   7   2  -4   99.05   18.13
  -7  -2  -4  100.75   12.38
  -7   2   4  115.20   15.54
   7   2   5   82.74   15.75
   7  -2  -5  127.99   16.55
  -7   2  -5  129.69   16.02
  -7   2   5  122.45   16.54
   7   2  -5  104.76   17.88
   7   2   6   12.97    3.28
  -7   2  -6   14.45    3.28
   7  -2  -6   21.16    4.94
   7  -2  -6   13.08    3.38
  -7  -2   6   15.87    3.31
  -7   2   6   13.28    3.37
   7  -2   6   14.07    3.02
   7   2   7   27.98    5.92
   7  -2  -7   22.16    7.33
  -7   2  -7   45.03    8.08
   7  -2  -7  103.61   23.90
  -7  -2   7   45.39    7.56
   7   2  -7   34.95    7.54
  -7   2   7   42.49    7.20
   7  -2   7   38.98    9.14
   7   2   8   43.52    9.81
   7  -2  -8   39.74    7.29
  -7   2  -8   51.36    9.23
  -7  -2   8   54.76    9.14
  -7   2   8   46.27    5.45
   7   2  -8   44.53    8.92
   7  -2   8   46.48   10.40
   7   2   9    2.70    1.08
   7  -2  -9    2.88    1.28
  -7   2  -9    4.22    2.02
  -7  -2   9    7.01    2.10
   7   2  -9    1.64    1.47
  -7  -2  -9    5.80    2.31
  -7   2   9    4.04    1.17
   7  -2   9    5.31    1.72
  -7   2   9    4.36    1.53
   7   2  10   49.08    7.77
  -7   2 -10   59.33   12.51
  -7  -2  10   61.67    9.71
   7   2 -10   46.12    8.27
   7  -2  10   52.17    8.98
  -7   2  10   54.51    7.44
   7   2  11   10.98    3.96
  -7   2 -11   19.84    4.88
   7  -2 -11   23.33    3.93
  -7  -2 -11   20.62    5.98
   7  -2  11   17.75    5.26
  -7   2  11   20.14    5.73
   7   2  12    6.42    3.39
  -7   2 -12    7.31    3.10
   7  -2 -12    8.07    2.80
  -7  -2  12   12.71    3.06
   7  -2  12    8.04    2.73
  -7   2  12    5.87    2.82
   7   2  13   49.94    6.17
  -7   2 -13   65.32   13.98
   7  -2 -13   50.63   12.55
  -7  -2  13   58.53    7.17
   7  -2  13   47.42   10.47
  -7   2  13   47.72    5.53
   7   2  14    2.85    1.46
  -7   2 -14    2.64    1.79
   7  -2 -14    3.63    1.72
  -7  -2  14    1.99    1.66
  -7  -2 -14    1.89    1.25
   7  -2  14    1.44    1.00
  -7   2  14    1.46    1.11
   7   2  15   -0.67    2.32
  -7   2 -15   -0.41    2.46
   7  -2 -15    1.67    0.83
  -7   2  15    0.15    1.13
   7   2  16   15.27    4.74
  -7   2 -16   20.73    4.86
   7  -2 -16   20.29    5.72
  -7   2  16   17.36    4.34
   7   2  17   13.23    3.08
  -7   2 -17   25.67    6.40
   7  -2 -17   17.90    5.73
  -7   2  17   24.45    5.33
   7   2  18    5.42    2.59
  -7   2 -18    2.44    1.54
   7  -2 -18    3.08    1.68
  -7   2  18    1.52    1.21
   7   2  19   10.96    3.40
  -7   2 -19   15.44    4.82
   7  -2 -19   13.49    3.72
  -7   2  19   11.32    3.20
   7   2  20    5.24    3.27
  -7   2 -20    6.57    3.22
   7  -2 -20   10.31    3.18
  -7   2  20    7.96    3.97
   7   2  21    6.50    2.94
  -7   2 -21    2.21    1.88
   7   2 -21    1.91    1.55
  -7   2  21   -1.06    1.87
   7   2  22    8.81    3.72
   7   2 -22   17.38    7.02
  -7   2  22   12.04    4.69
   7   2  23    9.03    3.66
  -7   2 -23    6.30    3.00
   7   2 -23    8.50    3.74
  -7   2 -24    3.77    2.47
   7   2 -24    8.16    3.81
   7   2 -25   15.14    4.44
  -7   3   0    8.79    3.05
  -7  -3   0   10.08    2.40
   7   3   1   22.13    5.28
  -7   3  -1   18.01    3.59
   7   3  -1   17.94    4.19
  -7   3   1   15.29    3.68
  -7  -3  -1   20.54    4.06
  -7   3  -2   55.39   12.95
   7   3  -2   44.29    9.43
  -7   3   2   48.70    8.48
   7   3   3   11.92    3.18
  -7   3  -3   15.01    3.24
  -7  -3   3   12.60    2.80
   7   3  -3    9.95    2.11
  -7   3   3    6.02    1.59
  -7  -3  -3   10.81    2.65
   7   3   4    5.44    1.98
  -7   3  -4   13.31    2.86
  -7  -3   4   11.01    2.67
   7   3  -4    6.56    2.74
   7   3   5   51.65   10.79
  -7   3  -5   64.24    8.78
   7   3  -5   45.59   11.10
  -7   3   5   56.36    9.38
  -7  -3  -5   48.80    9.54
   7   3   6   27.16    4.30
  -7   3  -6   32.87    6.47
  -7  -3   6   26.24    4.40
  -7   3   6   20.76    5.42
  -7  -3  -6   25.21    5.15
   7   3   7   11.51    3.36
  -7  -3   7   16.45    4.27
  -7   3  -7   18.59    5.55
   7  -3  -7   -6.68    4.81
  -7   3   7   13.25    3.98
   7   3  -7   14.85    4.13
   7  -3   7   16.27    4.69
   7   3   8    1.53    1.43
  -7   3  -8   -0.06    1.94
   7  -3  -8   -3.43    6.50
  -7  -3   8    3.11    1.60
   7   3  -8    3.08    1.09
  -7  -3  -8    1.44    1.09
  -7   3   8    2.62    1.23
   7  -3   8    4.91    1.67
   7   3   9    1.14    2.27
  -7   3  -9   -2.76    2.05
  -7  -3   9    1.11    1.01
   7   3  -9    1.40    0.99
   7  -3   9    0.58    1.40
   7   3  10   26.32    5.72
  -7   3 -10   36.75    8.28
  -7  -3  10   33.37    6.74
   7   3 -10   26.82    6.42
   7  -3  10   33.06    8.08
  -7   3  10   31.39    7.70
   7   3  11   52.69   11.94
  -7   3 -11   58.97    7.63
  -7  -3  11   69.34    9.82
  -7  -3 -11   52.68   12.17
   7  -3  11   64.80   13.29
   7   3  12    5.31    3.23
  -7   3 -12    3.52    1.78
  -7  -3  12    6.93    2.45
   7  -3  12    6.79    2.88
  -7   3  12    9.06    3.27
   7   3  13   24.63    6.25
  -7   3 -13   24.95    6.54
  -7  -3  13   29.42    6.01
  -7  -3 -13   24.78    5.60
   7   3  14    0.34    2.71
  -7   3 -14    5.63    2.55
  -7  -3  14    1.63    1.27
  -7  -3 -14    2.83    1.87
   7  -3  14    1.30    0.77
  -7   3  14    0.17    1.19
   7   3  15    1.16    1.76
  -7   3 -15    7.14    3.06
  -7  -3  15    4.91    2.26
  -7  -3 -15    8.69    3.73
   7  -3  15   30.91   13.95
   7   3  16   20.42    5.86
  -7   3 -16   26.86    6.62
  -7  -3  16   22.74    5.16
   7  -3  16   23.69    5.73
  -7   3  16   22.14    7.13
   7   3  17    7.37    3.30
  -7   3 -17   12.73    4.10
  -7   3  17    8.49    3.92
   7   3  18   13.71    3.76
  -7   3 -18   18.77    6.24
  -7   3  18   19.14    6.98
   7   3  19   43.81   10.46
  -7   3 -19   44.44   14.65
  -7   3  19   49.46   12.48
   7   3  20   19.31    7.45
  -7   3 -20   19.97    7.84
   7   3 -20   21.24    8.49
  -7   3  20   15.91    6.29
   7   3  21   18.96    7.03
  -7   3 -21   24.32    9.33
   7   3 -21   24.20    9.49
  -7   3  21   16.92    7.06
   7   3  22    7.84    4.01
   7   3 -22    8.90    3.63
  -7   3  22    9.48    2.59
  -7   3 -23   18.34    4.79
   7   3 -23   18.26    4.46
   7   3 -24   19.21    4.97
  -7   4   0    4.52    1.54
  -7  -4   0    4.71    1.94
   7   4   1   32.06    7.70
  -7   4  -1   40.70   10.87
   7   4  -1   33.99    6.80
  -7   4   1   35.94    5.38
  -7  -4   2  127.16   19.45
  -7   4  -2  120.49   20.75
  -7   4   2  114.56   17.63
   7   4  -2  126.92   20.80
   7   4   3   11.78    3.08
  -7  -4   3    9.17    3.77
  -7   4  -3   12.84    3.68
  -7   4   3    8.08    2.58
   7   4  -3   11.41    3.09
   7   4   4   61.31   13.46
  -7   4  -4   74.45    8.26
   7   4  -4   67.33   10.40
  -7   4   4   63.14   10.44
   7   4   5   23.05    5.23
  -7   4  -5   24.30    6.78
  -7  -4   5   29.87    5.57
   7   4  -5   21.76    4.95
  -7   4   5   24.86    5.23
  -7  -4  -5   25.96    5.38
   7   4   6   -0.42    2.04
  -7   4  -6    2.72    1.44
  -7  -4   6    1.71    1.23
   7  -4  -6    2.32    1.55
  -7   4   6    0.78    0.69
   7  -4   6    4.72    2.60
   7   4   7   16.70    3.98
  -7   4  -7   16.89    3.97
   7  -4  -7   27.42    7.64
  -7   4   7   15.25    4.45
  -7  -4  -7   20.61    4.64
   7  -4   7   22.62    5.95
   7   4   8   13.78    3.01
   7  -4  -8   -7.13    4.89
  -7   4  -8   11.78    4.11
  -7  -4   8   13.82    3.56
   7   4  -8   11.57    4.26
   7  -4   8   17.23    4.16
   7   4   9   34.57    9.34
   7  -4  -9  239.60   85.17
  -7   4  -9   51.00   12.34
  -7  -4   9   46.13    6.36
   7   4  -9   41.75    6.33
   7  -4   9   45.04    9.66
   7   4  10   45.84    9.52
  -7  -4  10   50.16    9.11
  -7   4 -10   56.18   13.77
  -7  -4 -10   49.60   10.51
   7   4 -10   38.07    7.76
   7  -4  10   58.49   12.23
   7   4  11   23.35    5.54
  -7   4 -11   35.33    6.68
  -7  -4  11   37.57    8.14
   7  -4  11   40.31    7.87
  -7   4  11   36.35    5.80
   7   4  12   17.51    4.35
  -7   4 -12   18.94    4.80
  -7  -4  12   19.58    5.16
  -7   4  12   17.28    4.25
   7   4  13   72.98   15.28
  -7   4 -13   92.01   22.09
  -7  -4  13  102.43   21.20
  -7   4  13  101.92   18.44
   7   4  14   23.73    5.21
  -7   4 -14   23.86    8.56
  -7  -4  14   30.01    6.70
  -7  -4 -14   21.49    5.11
  -7   4  14   21.52    5.78
   7   4  15    8.68    4.16
  -7   4 -15   10.15    5.12
  -7  -4  15   11.63    2.63
  -7  -4 -15   10.02    4.96
   7   4  16    2.71    1.55
  -7   4 -16    2.76    2.41
  -7   4  16    2.17    1.52
   7   4  17   42.68   11.12
  -7   4 -17   45.74   14.04
  -7  -4  17   52.38   12.60
   7  -4  17   45.79   13.13
  -7   4  17   44.81   10.87
   7   4  18    0.00    2.34
  -7   4 -18    1.57    1.84
   7  -4  18    2.89    1.99
   7   4  19    3.27    2.38
  -7   4 -19    2.67    2.08
  -7   4  19    3.73    2.21
   7   4  20   -1.67    2.10
  -7   4 -20   -0.12    2.48
   7   4 -20    5.04    3.09
  -7   4  20    1.01    1.18
   7   4  21   11.44    2.80
  -7   4 -21    9.80    3.06
  -7   4  21   14.41    5.97
  -7   4 -22   39.98   11.31
   7   4 -22   34.83   11.36
  -7   4  22   29.51    8.60
   7   4 -23   15.61    4.54
   7   5   0   19.16    5.00
  -7   5   0   25.56    6.26
  -7   5  -1   59.29   11.28
  -7  -5   1   62.51   11.38
  -7   5   1   57.11    9.00
   7   5   2   55.11   11.51
  -7   5  -2   54.99    8.27
   7   5  -2   60.47    9.27
  -7   5   2   60.22    5.25
   7   5   3   51.63    8.72
  -7  -5   3   51.74    9.63
  -7   5  -3   56.42    8.84
  -7   5   3   45.82    7.79
   7   5  -3   49.43   11.11
   7   5   4   66.80   12.52
  -7  -5   4   77.23   14.86
  -7   5  -4   90.83   18.17
  -7   5   4   67.71   12.79
   7   5  -4   76.04   13.42
   7   5   5    2.87    1.83
  -7   5  -5    5.56    2.50
   7   5  -5    6.34    3.08
  -7   5   5    1.97    1.01
  -7  -5  -5    1.01    1.44
   7   5   6   21.62    5.49
  -7  -5   6   33.22   13.66
  -7   5  -6   26.25    8.45
   7  -5  -6   35.65   11.75
  -7   5   6   20.48    6.80
   7   5  -6   30.25    7.10
   7   5   7   17.05    4.34
  -7   5  -7   23.41    6.21
  -7  -5   7   23.86    4.94
   7  -5   7   23.58    6.26
   7   5   8   67.73   13.89
  -7   5  -8   69.44   13.05
   7   5  -8   61.17   14.30
   7  -5   8   72.56   14.65
   7   5   9   29.32    6.39
  -7   5  -9   52.69   15.26
  -7  -5   9   25.58    7.00
   7   5  -9   24.39    5.20
   7  -5   9   37.35    8.74
   7   5  10   12.39    3.68
  -7  -5  10   18.15    4.59
  -7   5 -10   11.58    2.86
  -7  -5 -10   13.63    3.27
   7   5 -10   11.63    3.47
   7  -5  10   14.26    3.63
   7   5  11    6.02    3.67
  -7   5 -11    6.06    2.74
  -7  -5  11    9.44    4.49
   7  -5 -11    8.64    5.39
  -7  -5 -11    6.87    3.43
   7  -5  11    8.06    4.02
   7   5  12    1.79    1.39
  -7   5 -12    2.09    1.69
  -7  -5  12    4.16    2.75
   7  -5 -12    8.37    5.00
   7  -5  12    4.04    2.33
   7   5  13   68.21   16.90
  -7   5 -13   83.16   18.81
  -7  -5  13   82.67   17.06
  -7  -5 -13   79.41   22.66
  -7   5  13   72.62   19.69
   7   5  14   10.18    4.22
  -7   5 -14    9.82    3.90
  -7  -5  14   13.33    4.21
  -7   5  14    8.71    2.95
   7   5  15   26.91    7.29
  -7   5 -15   39.75   11.90
  -7  -5  15   39.50   10.71
  -7   5  15   31.14    7.46
   7   5  16   49.08   15.53
  -7   5 -16   67.71   19.87
  -7  -5  16   71.37   19.41
   7  -5  16   67.71   21.13
  -7   5  16   56.51   15.81
   7   5  17   19.20    7.85
  -7   5 -17   27.52    9.96
  -7  -5  17   29.71    9.61
   7  -5  17   33.49   10.78
  -7   5  17   30.55    8.68
   7   5  18    0.49    1.07
  -7   5 -18   -1.82    2.43
  -7  -5  18    1.67    1.42
  -7   5  18    2.02    1.68
   7   5  19   54.21   14.32
  -7   5 -19   50.84   17.43
  -7   5  19   51.42   14.86
   7   5  20   26.94    6.79
  -7   5 -20   20.67    8.51
  -7   5 -21   33.20    9.71
   7   6   0    7.27    3.45
  -7   6   0    5.75    2.79
  -7   6  -1   31.05   14.39
  -7  -6   1   36.56    6.98
  -7   6   1   28.90    9.49
   7   6   2   11.77    2.83
  -7  -6   2   10.29    5.77
  -7   6  -2   11.91    3.01
  -7   6   2   10.14    4.96
   7   6  -2   10.53    2.44
   7   6   3    1.92    1.36
  -7   6  -3    0.87    1.62
   7   6  -3    1.27    1.31
  -7   6   3   -0.03    1.63
  -7  -6  -3    3.37    2.00
   7   6   4    3.76    2.07
  -7   6  -4    6.22    3.03
  -7  -6   4    7.18    3.89
   7   6  -4    0.85    1.13
  -7   6   4    3.78    1.78
  -7  -6  -4    8.72    3.83
   7   6   5   38.18    8.43
  -7   6  -5   37.34   10.88
   7   6  -5   32.30    8.20
   7   6   6    8.04    3.87
  -7   6  -6   16.67    4.02
  -7  -6   6   19.18    4.52
   7   6  -6   17.10    5.05
   7  -6   6   19.04    5.46
   7   6   7   53.07   10.80
  -7   6  -7   60.35   19.04
  -7  -6   7   61.42   13.44
   7  -6   7   74.35   17.53
   7   6   8   35.20    7.89
  -7   6  -8   31.10   10.19
  -7  -6   8   42.22    9.57
   7   6  -8   31.81    9.31
   7  -6   8   36.85    9.41
   7   6   9   26.00    7.98
  -7   6  -9   24.31    6.76
  -7  -6   9   23.57    8.66
   7   6  10   38.80    9.14
  -7   6 -10   44.62   10.79
  -7  -6  10   37.52   10.94
   7  -6 -10    1.67    2.11
   7   6  11   -0.71    2.16
  -7   6 -11    0.23    1.11
  -7  -6  11    0.14    1.51
   7  -6  11    5.77    2.88
   7   6  12   18.77    6.57
  -7   6 -12   23.64    9.69
  -7  -6  12   17.22    6.56
   7  -6 -12   -2.68    6.53
  -7  -6 -12   17.76    6.48
   7  -6  12   21.48    8.12
   7   6  13   52.95   15.24
  -7   6 -13   56.35   18.67
  -7  -6  13   58.03   18.99
   7  -6 -13    5.04    8.52
  -7  -6 -13   51.55   18.20
   7  -6  13   70.76   23.85
   7   6  14    9.90    4.62
  -7   6 -14   24.51    9.38
  -7  -6  14   28.09    8.94
   7  -6 -14   11.07    5.82
   7  -6  14   23.01    8.83
   7   6  15   39.64   12.39
  -7   6 -15   45.91   15.19
  -7  -6  15   49.96   14.49
  -7  -6 -15   39.69   12.22
   7  -6  15   45.44   15.69
  -7   6  15   47.46   15.98
   7   6  16    2.46    3.89
  -7   6 -16    1.99    3.29
  -7  -6  16    2.16    3.29
   7  -6  16    5.08    2.29
  -7   6  16    1.96    3.60
   7   6  17   22.45    5.38
  -7   6 -17   21.72    6.98
  -7  -6  17   29.97    7.89
  -7   6  17   24.04    7.87
   7   6  18    6.57    2.59
  -7   6 -18    6.78    3.62
  -7  -6  18    8.69    3.94
  -7   6  18    7.48    2.91
  -7   6 -19    3.03    4.78
  -7  -6  19    3.34    4.97
  -7   6  19    0.87    1.78
   7   7   0   19.91    6.87
  -7   7   0   20.62    5.48
  -7  -7   1    1.95    1.44
  -7   7  -1    5.49    2.77
  -7  -7  -1    2.33    2.34
  -7   7   1    2.59    1.71
   7   7   2    1.67    1.15
  -7   7  -2    2.51    1.64
  -7  -7   2    3.25    2.24
   7   7  -2    5.64    2.94
   7   7   3    8.52    2.78
  -7  -7   3    6.50    3.37
  -7   7  -3   16.86    4.86
  -7  -7  -3    9.71    3.31
   7   7  -3    8.80    2.75
   7   7   4    8.31    4.43
  -7   7  -4    9.62    3.92
  -7  -7   4   10.42    3.63
   7   7  -4    9.93    3.20
   7   7   5    7.49    3.69
  -7   7  -5   10.19    3.33
   7   7  -5    7.48    3.86
   7   7   6   26.66    7.77
  -7   7  -6   27.33    7.41
   7  -7  -6   28.01   10.86
   7   7  -6   19.67    7.78
   7   7   7   12.99    4.69
  -7   7  -7   12.37    4.88
  -7  -7  -7   15.71    6.73
   7   7   8   16.40    5.89
  -7   7  -8   19.90    7.12
   7  -7  -8   14.12    5.13
   7   7   9    6.57    2.83
  -7   7  -9   12.67    5.11
  -7  -7   9   12.18    5.12
   7  -7  -9   20.67    7.58
   7  -7   9   20.20    8.00
   7   7  10   -0.98    2.21
  -7   7 -10   -3.94    2.29
  -7  -7  10   -1.52    2.00
   7  -7 -10    1.55    1.55
   7  -7  10    0.88    2.35
   7   7  11   15.81    5.72
  -7   7 -11   14.05    5.53
  -7  -7  11    9.24    3.74
   7  -7 -11    1.66    1.68
  -7  -7 -11    7.54    3.37
   7  -7  11   12.68    4.92
   7   7  12    8.03    3.37
  -7   7 -12   10.84    2.76
  -7  -7  12    9.97    3.41
   7  -7 -12   10.71    5.15
  -7  -7 -12    5.06    2.81
   7  -7  12    9.47    3.69
   7   7  13    9.05    3.30
  -7   7 -13   10.47    2.53
  -7  -7  13    6.15    3.37
   7  -7 -13    1.98    3.24
   7   7  14   10.95    2.61
  -7   7 -14    8.72    4.00
  -7  -7  14    9.37    4.03
   7  -7 -14   -3.96    6.08
   7   7  15   27.49    6.48
  -7   7 -15   37.41   12.88
  -7  -7  15   44.54   11.83
   7  -7 -15   -0.29    6.38
  -7   7 -16   10.86    4.55
  -7  -7  16   16.14    4.21
   7  -7 -16  -16.69    9.09
   7   8   1    2.56    3.77
   7   8  -1    5.56    2.98
   7   8   2   12.90    3.95
  -7  -8   2   18.11    6.31
   7   8  -2   13.96    3.54
   7   8   3    8.35    3.86
  -7   8  -3    8.83    3.49
   7   8   4   35.44    8.30
  -7   8  -4   29.76    9.47
  -7  -8   4   31.64    9.35
   7   8   5   10.07    4.03
  -7   8  -5   10.42    2.53
   7   8   6   43.70   11.30
  -7   8  -6   40.15   14.20
  -7  -8   6   46.36   15.45
   7   8   7    6.91    2.83
  -7   8  -7    6.67    3.11
   7  -8   7   13.86    3.64
   7   8   8   14.37    3.28
  -7   8  -8   20.31    4.74
  -7  -8   8   18.21    6.23
   7  -8  -8   29.79    9.57
   7   8   9   12.78    3.32
  -7   8  -9    9.56    2.99
  -7  -8   9    9.04    3.73
   7   8  10   30.72    9.05
  -7   8 -10   25.19    8.48
   7  -8 -10   42.22   11.19
  -7  -8 -10   22.03    8.41
   7   8  11   -1.23    2.55
  -7   8 -11   -1.30    2.36
  -7  -8  11    3.21    5.09
   7  -8 -11    3.16    4.67
   7   8  12   11.73    2.48
   8   0   0   53.58   13.30
   8   0   1    1.29    1.31
   8   0  -1    4.41    2.39
   8   0   2   13.08    3.29
   8   0   3   15.99    4.51
   8   0  -4    3.18    1.54
   8   0   5    7.04    3.12
   8   0  -5    5.44    2.41
  -8   0   5    7.68    3.12
   8   0  -6    1.52    1.23
   8   0   7    1.19    0.97
   8   0   8    2.59    1.58
   8   0  15    1.92    1.51
   8   0  16    2.99    2.91
   8   0  17    2.92    4.45
   8   0  18   11.56    4.71
   8   0  19    3.17    4.91
   8   0  20   16.94    5.13
   8   1   0   10.56    2.76
  -8   1   0   12.18    3.01
  -8  -1   0   11.40    3.60
   8   1   1   -0.66    1.97
  -8   1  -1   -0.54    1.66
  -8  -1   1    0.60    0.71
   8   1  -1   -0.24    2.04
   8   1   2    3.76    1.95
  -8   1  -2    4.87    1.98
  -8  -1   2    5.59    2.49
   8   1  -2    5.42    2.67
   8  -1  -3   54.68   12.66
  -8   1  -3   81.92   20.56
  -8  -1   3   68.61   15.58
   8  -1  -4    7.74    3.10
   8   1   4   11.80    3.23
  -8   1  -4   13.50    3.53
  -8  -1   4   11.84    2.80
   8   1  -4   12.02    3.02
   8  -1  -5   12.80    4.95
  -8   1  -5   26.23    7.29
  -8  -1   5   24.08    6.11
   8   1  -5   21.04    5.28
   8   1   6    2.29    1.36
  -8   1  -6    5.10    2.78
  -8  -1   6   10.20    4.68
   8   1  -6   -0.84    1.25
   8   1   7   25.78    7.11
  -8   1  -7   33.36    7.40
  -8  -1   7   27.87    5.97
   8   1   8    9.41    4.23
  -8   1  -8    6.25    3.31
  -8  -1   8    7.45    3.25
   8   1   9   34.87    8.76
  -8   1  -9   54.78   11.43
  -8  -1   9   46.41    9.90
   8   1  10   28.13    8.33
  -8   1 -10   45.37   10.06
  -8  -1  10   38.28    9.42
   8   1  11   43.46   11.85
  -8   1 -11   67.10   18.09
   8   1  12    2.40    2.12
  -8   1 -12   -0.86    2.32
   8   1  13    6.67    3.33
  -8   1 -13   12.84    3.62
   8   1 -13    3.89    2.77
   8   1  14    2.95    2.40
  -8   1 -14   -4.25    2.29
   8   1 -14   -0.72    2.13
   8   1  15   20.05    7.73
  -8   1 -15   25.18   36.84
   8   1  16   -1.39    2.41
  -8   1 -16    2.46    1.86
   8   1  17    9.55    2.93
  -8   1 -17   11.53    4.54
   8   1  18   10.55    4.96
  -8   1 -18   17.68    4.44
   8   1  19    6.72    3.00
  -8   1 -19    5.30    2.91
   8   1  20   -2.51    2.31
  -8   1 -20    3.97    2.38
   8   2   0    3.75    2.35
  -8   2   0    8.84    3.92
  -8  -2   0    8.35    3.58
   8   2   1   10.94    3.52
  -8   2  -1   16.37    4.34
   8   2  -1   14.15    4.11
  -8   2   1   15.05    2.98
   8   2   2   79.02   20.27
  -8   2  -2  103.38   21.22
   8   2  -2   84.09   17.53
  -8   2   2  113.98   20.12
  -8   2  -3   39.86    8.58
  -8   2   3   31.18   15.47
   8   2   4    4.13    2.27
  -8  -2   4    6.31    3.04
  -8   2  -4    2.27    1.58
  -8   2   4    4.42    2.01
   8   2  -4    6.86    3.27
  -8   2  -5   26.87    7.82
   8   2  -5   23.43    5.81
   8   2   6   42.73    9.75
  -8   2  -6   57.93   12.67
  -8  -2   6   45.98   10.28
   8   2  -6   38.86    9.99
   8   2   7    1.12    1.08
  -8   2  -7   -1.00    2.16
  -8  -2   7    0.73    1.05
   8   2   8   -0.21    2.04
  -8   2  -8    1.14    1.43
  -8  -2   8    1.99    1.14
   8   2   9    9.33    2.93
  -8   2  -9   17.09    4.94
  -8  -2   9   14.68    3.89
   8   2  10   13.23    4.19
  -8   2 -10   15.87    4.29
  -8  -2  10   13.05    8.40
   8   2  11   17.14    5.08
  -8   2 -11   29.53   13.85
  -8  -2  11   26.24    8.45
   8   2  12   38.76   11.33
  -8   2 -12   35.84   10.97
  -8  -2  12   41.42    9.24
   8   2  13   -1.66    2.29
  -8   2 -13    4.47    2.61
   8   2  14   25.71    8.25
  -8   2 -14   28.10    8.95
   8   2  15    8.85    3.44
  -8   2 -15   22.17    9.10
   8   2  16    9.68    2.84
  -8   2 -16    5.77    2.57
   8   2  17    1.47    2.54
  -8   2 -17    0.86    2.05
   8   2  18   40.14   12.18
  -8   2 -18   56.55   17.52
   8   2  19    3.31    5.11
  -8   2 -19    4.59    2.95
   8   3   0   36.78   10.29
  -8   3   0   39.34    8.13
  -8  -3   0   29.87    6.78
   8   3   1    7.88    3.61
  -8   3  -1   12.74    3.62
  -8  -3   1   10.95    2.48
   8   3  -1    8.99    4.09
  -8   3   1   11.36    2.65
  -8  -3  -1   10.83    3.03
  -8  -3   2    5.57    2.86
  -8   3  -2    9.91    4.82
  -8   3   2    6.74    2.95
   8   3  -2    5.48    2.64
  -8   3  -3   67.93   18.32
   8   3  -3   53.46   13.30
  -8   3   3   58.28   13.91
  -8  -3  -3   56.48   16.75
  -8   3  -4   28.89    6.34
  -8  -3   4   25.96    6.49
   8   3   5   15.67    4.54
  -8   3  -5   23.66    6.70
   8   3  -5   17.00    5.85
   8   3   6   53.05   13.17
  -8   3  -6   80.49   16.55
  -8  -3   6   65.99   14.28
   8   3   7   16.18    5.65
  -8   3  -7   28.17    9.51
  -8  -3   7   24.57    7.26
   8   3   8    4.94    2.63
  -8   3  -8    4.57    2.35
  -8  -3   8    4.88    2.46
   8   3   9   30.37    7.23
  -8   3  -9   39.66    8.54
   8   3  10   48.68   12.27
  -8   3 -10   63.59   16.91
  -8  -3  10   50.43   11.95
   8   3  11   16.79    6.13
  -8   3 -11   27.38   10.55
  -8  -3  11   18.99    7.36
   8   3  12   -0.17    2.50
  -8   3 -12   -1.59    2.50
  -8  -3  12   -0.65    1.81
   8   3  13   20.55    8.56
  -8   3 -13   30.70    9.59
  -8  -3  13   26.18    8.11
   8   3  14    4.10    2.35
  -8   3 -14    6.44    2.89
  -8  -3  14    7.48    4.87
   8   3  15   13.36    3.46
  -8   3 -15   10.23    2.35
   8   3  16    7.52    3.42
  -8   3 -16    6.56    2.78
   8   3  17    3.76    1.96
  -8   3 -17    9.30    3.79
   8   3  18   16.48    3.87
  -8   3 -18   21.68    5.86
   8   4   0   19.49    6.27
  -8   4   0   17.99    5.97
   8   4   1   14.67    4.36
  -8   4  -1   11.78    3.65
   8   4  -1   12.51    3.69
  -8   4   1   10.52    2.92
  -8   4  -2   15.68    4.93
  -8  -4   2   18.97    5.30
   8   4  -2   16.72    4.78
  -8   4   2   17.31    5.40
  -8  -4  -2   16.92    5.21
   8   4   3    4.73    2.54
  -8   4  -3    8.04    3.96
   8   4  -3    7.58    3.75
  -8   4  -4    1.56    1.26
  -8  -4   4    3.18    1.83
   8   4   5   28.04    9.73
  -8   4  -5   35.23   10.11
   8   4  -5   27.26    8.29
   8   4   6   32.09    8.37
  -8   4  -6   40.37   10.44
  -8  -4  -6   26.55    9.13
   8   4   7    2.81    1.75
  -8   4  -7    1.59    2.26
  -8  -4   7    1.00    1.40
  -8  -4  -7    1.27    1.06
   8   4   8   16.47    7.53
  -8   4  -8   30.40    9.05
  -8  -4   8   24.02    9.25
   8   4   9   11.96    4.35
  -8   4  -9   13.10    6.18
  -8  -4   9   10.50    4.20
   8   4  10    0.59    1.53
  -8   4 -10   -1.06    2.31
  -8  -4  10    3.08    1.95
   8   4  11    2.41    1.45
  -8   4 -11    3.77    2.44
  -8  -4  11    4.56    3.19
   8   4  12   13.17    4.81
  -8   4 -12    9.42    3.99
  -8  -4  12   14.50    3.61
   8   4  13   25.48    7.75
  -8   4 -13   32.32    9.01
  -8  -4  13   29.29    8.95
   8   4  14   35.48   12.53
  -8   4 -14   44.19   14.96
   8   4  15    2.69    4.18
  -8   4 -15   -0.87    1.83
   8   4  16   17.32    5.93
  -8   4 -16   21.66    7.82
  -8  -4  16   21.11    5.32
  -8   4 -17   18.88    4.84
   8   5   0    3.82    2.25
   8   5   1   13.53   19.66
  -8   5  -1   14.51    5.69
   8   5  -1    9.27    3.58
  -8   5  -2   15.35    5.93
   8   5  -2   14.14    5.36
  -8   5  -3   31.14    9.52
   8   5  -3   29.72   10.54
   8   5   4    5.58    3.09
  -8   5  -4    1.28    2.16
  -8  -5   4    1.25    1.43
   8   5   5   18.77    7.36
  -8   5  -5   24.76    9.71
  -8  -5   5   22.94    8.64
   8   5   6   12.06    4.89
  -8   5  -6   25.72    7.46
  -8  -5   6   15.75    6.97
   8   5   7   34.94   10.28
  -8   5  -7   35.39   12.02
   8   5   8   28.23    7.99
  -8   5  -8   35.85   10.45
  -8  -5   8   36.47   10.19
   8   5   9   29.58    7.70
  -8   5  -9   27.04    7.75
   8   5  10   20.10    5.03
  -8   5 -10   32.31   10.79
  -8  -5  10   25.22    8.09
   8   5  11    3.51    5.28
  -8   5 -11   -1.02    2.67
   8   5  12   34.02    8.98
  -8   5 -12   28.37    8.16
  -8  -5  12   24.05    6.98
   8   5  13    5.41    3.04
  -8   5 -13    1.80    2.98
  -8  -5  13    2.42    3.66
   8   5  14    7.69    3.10
  -8   5 -14    5.26    2.38
   8   6   0    3.63    5.35
  -8  -6   0   12.17    2.72
   8   6  -1    5.05    2.57
   8   6   2   -0.39    2.28
  -8  -6   2    3.38    5.29
  -8  -6  -2   -0.26    1.81
  -8  -6   3    7.45    3.02
   8   6   4   -2.05    2.19
   8   6   5    9.07    3.70
   8   6   6   19.27    4.70
  -8  -6   6   16.71    5.77
   8   6   7    1.19    1.92
   8   6   8   26.37    8.62
   8   6   9   20.41    5.48
  -8  -6   9   18.63    5.12
   8   6  10   -0.01    2.45
   9   0   4   19.75    4.54
   9   0   5    8.46    3.66
   9   0   7    1.05    2.62
   9   0   9    1.04    2.62
   9   0  10   10.62    3.58
   9   1   3    4.74    1.98
   9   1   4    4.25    1.89
   9   1   5   17.73    4.09
   9   1   6   -0.82    2.42
   9  -1   7   14.72    3.64
   9   1   8    2.07    3.08
   9   1  10    6.05    2.67
   9   1  11    2.90    4.28
   9   2   8    2.80    4.35
;
loop_
_symmetry_equiv_pos_site_id
_space_group_symop_operation_xyz
1 +X,+Y,+Z
2 1/2+X,1/2-Y,-Z
3 -X,1/2+Y,1/2-Z
4 1/2-X,-Y,1/2+Z
loop_
_atom_site_label
_atom_site_type_symbol
_atom_site_fract_x
_atom_site_fract_y
_atom_site_fract_z
_atom_site_U_iso_or_equiv
_atom_site_adp_type
_atom_site_occupancy
_atom_site_site_symmetry_multiplicity
_atom_site_calc_flag
_atom_site_refinement_flags
S1 S 0.69565(8) -0.26530(6) 0.82839(2) 0.02526(14) Uani 1 4 d .
O1 O 0.2224(3) 0.16623(15) 0.82254(5) 0.0250(3) Uani 1 4 d .
O2 O -0.0705(3) 0.22006(18) 0.77529(6) 0.0303(3) Uani 1 4 d .
O3 O 0.3022(3) 0.07857(17) 0.94760(5) 0.0322(4) Uani 1 4 d .
N16 N 0.4697(3) -0.10690(19) 0.89928(6) 0.0215(3) Uani 1 4 d .
N19 N 0.6473(3) 0.03223(19) 0.84396(7) 0.0250(4) Uani 1 4 d .
C2 C 0.3767(3) -0.2390(2) 0.92288(7) 0.0204(4) Uani 1 4 d .
C4 C 0.5427(4) 0.1450(2) 0.87654(7) 0.0234(4) Uani 1 4 d .
C5 C 0.7089(4) 0.2394(3) 0.90597(8) 0.0306(5) Uani 1 4 d .
C6 C 0.6067(3) -0.1108(2) 0.85680(7) 0.0207(4) Uani 1 4 d .
C7 C 0.4198(3) 0.0402(2) 0.91319(7) 0.0233(4) Uani 1 4 d .
C8 C 0.1685(3) -0.2810(2) 0.90918(7) 0.0244(4) Uani 1 4 d .
C9 C 0.4945(4) -0.3208(2) 0.95814(7) 0.0244(4) Uani 1 4 d .
C10 C 0.1764(4) 0.4154(2) 0.81070(8) 0.0275(4) Uani 1 4 d .
C11 C 0.0786(4) -0.4101(2) 0.93051(8) 0.0282(5) Uani 1 4 d .
C12 C 0.4033(4) -0.4502(2) 0.97924(8) 0.0279(5) Uani 1 4 d .
C13 C 0.3645(4) 0.3926(2) 0.84170(8) 0.0268(5) Uani 1 4 d .
C14 C 0.1963(4) -0.4949(2) 0.96523(8) 0.0293(5) Uani 1 4 d .
C15 C -0.1916(4) 0.3343(3) 0.74836(9) 0.0363(5) Uani 1 4 d .
C17 C 0.1009(3) 0.2762(2) 0.80086(7) 0.0240(4) Uani 1 4 d .
C18 C 0.3886(3) 0.2422(2) 0.84795(7) 0.0231(4) Uani 1 4 d .
H5A H 0.81913 0.17245 0.92046 0.0367 Uiso 1 4 calc R
H5B H 0.63592 0.29438 0.93339 0.0367 Uiso 1 4 calc R
H5C H 0.77784 0.31176 0.88286 0.0367 Uiso 1 4 calc R
H8 H 0.08845 -0.22215 0.88553 0.0293 Uiso 1 4 calc R
H9 H 0.63551 -0.28908 0.96778 0.0292 Uiso 1 4 calc R
H10 H 0.1178 0.50899 0.79953 0.0329 Uiso 1 4 calc R
H11 H -0.0635 -0.4405 0.92133 0.0338 Uiso 1 4 calc R
H12 H 0.48271 -0.50809 1.00326 0.0334 Uiso 1 4 calc R
H13 H 0.45519 0.46931 0.85531 0.0322 Uiso 1 4 calc R
H14 H 0.13498 -0.58383 0.97949 0.0352 Uiso 1 4 calc R
H15A H -0.25769 0.40392 0.77283 0.0435 Uiso 1 4 calc R
H15B H -0.3051 0.28592 0.72807 0.0435 Uiso 1 4 calc R
H15C H -0.09416 0.39064 0.72589 0.0435 Uiso 1 4 calc R
H19 H 0.73019 0.0569 0.81806 0.0299 Uiso 1 4 calc R
loop_
_atom_site_aniso_label
_atom_site_aniso_U_11
_atom_site_aniso_U_22
_atom_site_aniso_U_33
_atom_site_aniso_U_12
_atom_site_aniso_U_13
_atom_site_aniso_U_23
S1 0.0252(3) 0.0217(3) 0.0289(3) 0.0015(2) 0.00237(19) -0.00209(19)
O1 0.0282(8) 0.0171(7) 0.0298(7) -0.0039(6) -0.0021(6) 0.0013(6)
O2 0.0288(8) 0.0300(9) 0.0323(7) -0.0054(7) -0.0051(6) 0.0041(6)
O3 0.0372(9) 0.0282(8) 0.0314(7) 0.0026(8) 0.0108(7) -0.0014(6)
N16 0.0225(8) 0.0181(8) 0.0239(8) -0.0010(7) 0.0031(7) 0.0014(7)
N19 0.0272(9) 0.0186(8) 0.0291(9) -0.0009(8) 0.0075(7) -0.0001(7)
C2 0.0231(9) 0.0174(9) 0.0206(8) -0.0021(8) 0.0027(7) -0.0007(7)
C4 0.0263(11) 0.0178(10) 0.0261(10) -0.0013(8) 0.0023(8) 0.0003(7)
C5 0.0307(11) 0.0275(11) 0.0337(10) -0.0054(11) -0.0037(9) -0.0008(9)
C6 0.0169(9) 0.0235(10) 0.0217(9) -0.0018(8) -0.0021(7) 0.0014(8)
C7 0.0236(10) 0.0224(10) 0.0238(9) -0.0015(9) -0.0004(8) 0.0009(8)
C8 0.0232(10) 0.0253(11) 0.0248(9) 0.0012(9) -0.0019(8) 0.0020(8)
C9 0.0227(10) 0.0249(10) 0.0254(9) -0.0008(9) -0.0020(8) 0.0000(8)
C10 0.0330(12) 0.0201(10) 0.0293(10) 0.0033(10) 0.0014(9) 0.0014(8)
C11 0.0243(11) 0.0255(11) 0.0348(11) -0.0060(10) 0.0033(9) -0.0031(9)
C12 0.0372(12) 0.0221(10) 0.0244(10) 0.0035(10) 0.0005(9) 0.0036(8)
C13 0.0322(12) 0.0182(10) 0.0299(10) -0.0040(9) 0.0003(9) -0.0014(8)
C14 0.0381(12) 0.0216(10) 0.0283(10) -0.0042(11) 0.0095(10) 0.0009(8)
C15 0.0323(12) 0.0420(13) 0.0345(11) 0.0042(13) -0.0040(10) 0.0068(10)
C17 0.0252(10) 0.0238(11) 0.0230(9) -0.0002(9) 0.0022(8) 0.0013(8)
C18 0.0243(10) 0.0190(10) 0.0259(9) -0.0035(9) 0.0006(7) -0.0014(8)
loop_
_atom_type_symbol
_atom_type_description
_atom_type_scat_dispersion_real
_atom_type_scat_dispersion_imag
_atom_type_scat_source
C C 0.0033 0.0016
;
International Tables for Crystallography
(Vol. C, Tables 4.2.6.8 and 6.1.1.4)
;
H H 0.0000 0.0000
;
International Tables for Crystallography
(Vol. C, Table 6.1.1.4)
;
N N 0.0061 0.0033
;
International Tables for Crystallography
(Vol. C, Tables 4.2.6.8 and 6.1.1.4)
;
O O 0.0106 0.0060
;
International Tables for Crystallography
(Vol. C, Tables 4.2.6.8 and 6.1.1.4)
;
S S 0.1246 0.1234
;
International Tables for Crystallography
(Vol. C, Tables 4.2.6.8 and 6.1.1.4)
;
loop_
_geom_angle_atom_site_label_1
_geom_angle_atom_site_label_2
_geom_angle_atom_site_label_3
_geom_angle
_geom_angle_publ_flag
C17 O1 C18 105.33(16) yes
C15 O2 C17 113.24(18) yes
C2 N16 C6 124.31(17) yes
C2 N16 C7 123.88(17) yes
C6 N16 C7 111.59(16) yes
C4 N19 C6 114.47(18) yes
N16 C2 C8 118.34(17) yes
N16 C2 C9 120.12(18) yes
C8 C2 C9 121.53(19) yes
N19 C4 C5 111.72(19) yes
N19 C4 C7 100.07(17) yes
N19 C4 C18 112.33(16) yes
C5 C4 C7 110.02(16) yes
C5 C4 C18 111.72(18) yes
C7 C4 C18 110.41(18) yes
S1 C6 N16 125.61(16) yes
S1 C6 N19 127.39(16) yes
N16 C6 N19 106.99(17) yes
O3 C7 N16 126.47(19) yes
O3 C7 C4 126.7(2) yes
N16 C7 C4 106.85(17) yes
C2 C8 C11 119.09(19) yes
C2 C9 C12 118.9(2) yes
C13 C10 C17 105.24(19) yes
C8 C11 C14 120.1(2) yes
C9 C12 C14 120.1(2) yes
C10 C13 C18 107.31(18) yes
C11 C14 C12 120.3(2) yes
O1 C17 O2 112.43(18) yes
O1 C17 C10 112.60(19) yes
O2 C17 C10 134.9(2) yes
O1 C18 C4 115.80(18) yes
O1 C18 C13 109.52(18) yes
C4 C18 C13 134.63(19) yes
C4 N19 H19 122.765 no
C6 N19 H19 122.768 no
C4 C5 H5A 109.471 no
C4 C5 H5B 109.466 no
C4 C5 H5C 109.472 no
H5A C5 H5B 109.477 no
H5A C5 H5C 109.471 no
H5B C5 H5C 109.470 no
C2 C8 H8 120.459 no
C11 C8 H8 120.451 no
C2 C9 H9 120.524 no
C12 C9 H9 120.533 no
C13 C10 H10 127.382 no
C17 C10 H10 127.378 no
C8 C11 H11 119.978 no
C14 C11 H11 119.970 no
C9 C12 H12 119.947 no
C14 C12 H12 119.950 no
C10 C13 H13 126.353 no
C18 C13 H13 126.339 no
C11 C14 H14 119.878 no
C12 C14 H14 119.866 no
O2 C15 H15A 109.476 no
O2 C15 H15B 109.469 no
O2 C15 H15C 109.467 no
H15A C15 H15B 109.474 no
H15A C15 H15C 109.468 no
H15B C15 H15C 109.472 no
loop_
_geom_bond_atom_site_label_1
_geom_bond_atom_site_label_2
_geom_bond_distance
_geom_bond_publ_flag
S1 C6 1.651(2) yes
O1 C17 1.354(3) yes
O1 C18 1.398(3) yes
O2 C15 1.443(3) yes
O2 C17 1.350(3) yes
O3 C7 1.210(3) yes
N16 C2 1.442(3) yes
N16 C6 1.403(3) yes
N16 C7 1.386(3) yes
N19 C4 1.465(3) yes
N19 C6 1.333(3) yes
C2 C8 1.387(3) yes
C2 C9 1.384(3) yes
C4 C5 1.534(3) yes
C4 C7 1.538(3) yes
C4 C18 1.487(3) yes
C8 C11 1.388(3) yes
C9 C12 1.391(3) yes
C10 C13 1.434(3) yes
C10 C17 1.342(3) yes
C11 C14 1.387(3) yes
C12 C14 1.389(4) yes
C13 C18 1.349(3) yes
N19 H19 0.880 no
C5 H5A 0.980 no
C5 H5B 0.980 no
C5 H5C 0.980 no
C8 H8 0.950 no
C9 H9 0.950 no
C10 H10 0.950 no
C11 H11 0.950 no
C12 H12 0.950 no
C13 H13 0.950 no
C14 H14 0.950 no
C15 H15A 0.980 no
C15 H15B 0.980 no
C15 H15C 0.980 no
loop_
_geom_contact_atom_site_label_1
_geom_contact_atom_site_label_2
_geom_contact_distance
_geom_contact_publ_flag
_geom_contact_site_symmetry_2
S1 C2 3.182(3) no .
O1 O3 3.416(3) no .
O1 N16 3.499(3) no .
O1 N19 2.936(3) no .
O1 C6 3.529(3) no .
O1 C7 2.901(3) no .
O1 C15 3.545(3) no .
O2 C13 3.551(3) no .
O2 C18 3.428(3) no .
O3 N19 3.487(3) no .
O3 C2 2.919(3) no .
O3 C5 3.089(3) no .
O3 C6 3.472(3) no .
O3 C8 3.437(3) no .
O3 C18 3.042(3) no .
N16 C5 3.405(4) no .
N16 C18 3.406(3) no .
N19 C2 3.586(3) no .
C2 C14 2.758(3) no .
C4 C17 3.573(3) no .
C5 C6 3.415(4) no .
C5 C13 3.038(3) no .
C6 C8 3.391(3) no .
C6 C9 3.322(3) no .
C6 C18 3.408(4) no .
C7 C8 3.239(4) no .
C7 C9 3.435(4) no .
C8 C12 2.783(3) no .
C9 C11 2.786(4) no .
C10 C15 2.895(4) no .
S1 O2 3.582(3) no 3_646
O1 C15 3.483(4) no 3_546
O2 S1 3.582(3) no 3_656
O2 N19 3.011(3) no 1_455
O2 C10 3.578(3) no 3_546
O3 C12 3.328(3) no 2_447
O3 C14 3.427(3) no 2_547
N19 O2 3.011(3) no 1_655
C8 C13 3.599(3) no 1_545
C10 O2 3.578(3) no 3_556
C10 C11 3.561(4) no 1_565
C11 C10 3.561(4) no 1_545
C11 C13 3.409(3) no 1_545
C12 O3 3.328(3) no 2_547
C13 C8 3.599(3) no 1_565
C13 C11 3.409(3) no 1_565
C13 C14 3.554(4) no 1_565
C14 O3 3.427(3) no 2_447
C14 C13 3.554(4) no 1_545
C15 O1 3.483(4) no 3_556
S1 H19 2.8698 no .
O1 H10 3.1575 no .
O1 H13 3.1616 no .
O1 H19 3.2866 no .
O2 H10 2.8790 no .
O3 H5A 3.3782 no .
O3 H5B 2.8351 no .
O3 H8 3.3886 no .
N16 H5A 3.3283 no .
N16 H8 2.5932 no .
N16 H9 2.6255 no .
N16 H19 3.0425 no .
N19 H5A 2.5915 no .
N19 H5B 3.3036 no .
N19 H5C 2.7941 no .
C2 H11 3.2528 no .
C2 H12 3.2501 no .
C4 H13 2.9710 no .
C5 H13 2.8928 no .
C5 H19 2.8234 no .
C6 H5A 3.2870 no .
C6 H8 3.4356 no .
C6 H9 3.3229 no .
C7 H5A 2.7382 no .
C7 H5B 2.6678 no .
C7 H5C 3.3616 no .
C7 H8 3.1793 no .
C7 H9 3.5099 no .
C7 H19 3.1572 no .
C8 H9 3.2739 no .
C8 H14 3.2613 no .
C9 H8 3.2729 no .
C9 H14 3.2659 no .
C10 H15A 2.8642 no .
C10 H15C 2.7971 no .
C11 H12 3.2640 no .
C12 H11 3.2644 no .
C13 H5B 3.0644 no .
C13 H5C 2.8661 no .
C14 H8 3.2645 no .
C14 H9 3.2696 no .
C15 H10 2.8029 no .
C17 H13 3.1250 no .
C17 H15A 2.5950 no .
C17 H15B 3.1583 no .
C17 H15C 2.5237 no .
C18 H5A 3.3320 no .
C18 H5B 2.7574 no .
C18 H5C 2.6479 no .
C18 H10 3.1609 no .
C18 H19 2.7858 no .
H5A H19 2.9334 no .
H5B H13 2.8037 no .
H5C H13 2.5386 no .
H5C H19 2.8410 no .
H8 H11 2.3446 no .
H9 H12 2.3481 no .
H10 H13 2.5743 no .
H10 H15A 2.5971 no .
H10 H15C 2.5624 no .
H11 H14 2.3352 no .
H12 H14 2.3368 no .
S1 H8 2.8814 no 1_655
S1 H10 3.3720 no 1_645
S1 H11 3.2551 no 1_655
S1 H13 2.8667 no 1_545
S1 H15A 3.2824 no 1_645
S1 H15B 2.8707 no 3_546
S1 H15C 3.1638 no 3_646
O1 H5A 3.5855 no 1_455
O1 H5C 3.4246 no 1_455
O1 H15A 3.4239 no 3_546
O1 H15C 2.8618 no 3_546
O1 H19 3.1950 no 1_455
O2 H5C 3.0897 no 1_455
O2 H10 2.7283 no 3_546
O2 H15C 3.0857 no 3_546
O2 H19 2.2058 no 1_455
O3 H5A 3.1806 no 1_455
O3 H5B 3.4817 no 2_457
O3 H9 3.5454 no 2_447
O3 H12 2.4413 no 2_447
O3 H14 3.2685 no 1_565
O3 H14 2.8133 no 2_547
N19 H15B 3.5792 no 3_546
N19 H15C 3.5461 no 3_646
C2 H9 3.2496 no 2_447
C2 H13 3.1698 no 1_545
C5 H11 3.1863 no 1_665
C5 H12 3.5710 no 2_547
C5 H14 3.3441 no 2_547
C6 H8 3.2266 no 1_655
C6 H15B 3.0487 no 3_546
C7 H12 3.4949 no 2_447
C7 H14 3.1450 no 2_547
C8 H9 3.3022 no 2_447
C8 H10 3.4453 no 1_545
C8 H13 3.1664 no 1_545
C9 H5B 3.5731 no 1_545
C9 H9 3.1094 no 2_447
C9 H11 3.0861 no 1_655
C9 H13 3.2899 no 1_545
C10 H5C 3.2426 no 1_455
C10 H11 3.5064 no 1_565
C10 H15B 3.5224 no 3_556
C11 H5C 3.3280 no 1_445
C11 H9 3.1002 no 1_455
C11 H9 3.2230 no 2_447
C11 H10 3.5278 no 1_545
C11 H13 3.2357 no 1_545
C12 H5A 3.3312 no 2_447
C12 H5B 2.9367 no 1_545
C12 H9 3.0265 no 2_447
C12 H13 3.3528 no 1_545
C13 H15A 2.9580 no 1_655
C14 H5A 3.4766 no 2_447
C14 H5B 3.4002 no 1_545
C14 H9 3.0906 no 2_447
C14 H13 3.3206 no 1_545
C15 H5C 3.5493 no 1_455
C15 H10 3.1732 no 3_546
C15 H19 3.1005 no 1_455
C17 H5C 2.9568 no 1_455
C17 H15C 3.4810 no 3_546
C17 H19 3.0358 no 1_455
C18 H15A 3.2760 no 1_655
H5A O1 3.5855 no 1_655
H5A O3 3.1806 no 1_655
H5A C12 3.3312 no 2_547
H5A C14 3.4766 no 2_547
H5A H11 3.4984 no 1_665
H5A H12 2.6763 no 2_547
H5A H14 3.2967 no 1_665
H5A H14 2.9731 no 2_547
H5B O3 3.4817 no 2_557
H5B C9 3.5731 no 1_565
H5B C12 2.9367 no 1_565
H5B C14 3.4002 no 1_565
H5B H11 3.0081 no 1_665
H5B H12 2.7068 no 1_565
H5B H14 3.4959 no 1_565
H5B H14 3.4856 no 1_665
H5B H14 2.9529 no 2_547
H5C O1 3.4246 no 1_655
H5C O2 3.0897 no 1_655
H5C C10 3.2426 no 1_655
H5C C11 3.3280 no 1_665
H5C C15 3.5493 no 1_655
H5C C17 2.9568 no 1_655
H5C H10 3.5021 no 1_655
H5C H11 2.6048 no 1_665
H5C H14 3.4915 no 1_665
H5C H15A 3.0154 no 1_655
H8 S1 2.8814 no 1_455
H8 C6 3.2266 no 1_455
H8 H9 3.5880 no 1_455
H8 H10 3.2869 no 1_545
H8 H15B 3.2760 no 3_546
H8 H15C 3.0967 no 3_546
H9 O3 3.5454 no 2_547
H9 C2 3.2496 no 2_547
H9 C8 3.3022 no 2_547
H9 C9 3.1094 no 2_547
H9 C11 3.1002 no 1_655
H9 C11 3.2230 no 2_547
H9 C12 3.0265 no 2_547
H9 C14 3.0906 no 2_547
H9 H8 3.5880 no 1_655
H9 H9 3.5925 no 2_447
H9 H9 3.5925 no 2_547
H9 H11 2.5978 no 1_655
H9 H12 3.4773 no 2_547
H9 H14 3.5772 no 2_547
H10 S1 3.3720 no 1_465
H10 O2 2.7283 no 3_556
H10 C8 3.4453 no 1_565
H10 C11 3.5278 no 1_565
H10 C15 3.1732 no 3_556
H10 H5C 3.5021 no 1_455
H10 H8 3.2869 no 1_565
H10 H11 3.4242 no 1_565
H10 H15B 2.8042 no 3_556
H10 H15C 3.4433 no 3_556
H10 H19 3.2610 no 3_656
H11 S1 3.2551 no 1_455
H11 C5 3.1863 no 1_445
H11 C9 3.0861 no 1_455
H11 C10 3.5064 no 1_545
H11 H5A 3.4984 no 1_445
H11 H5B 3.0081 no 1_445
H11 H5C 2.6048 no 1_445
H11 H9 2.5978 no 1_455
H11 H10 3.4242 no 1_545
H11 H12 3.5880 no 1_455
H11 H13 3.5364 no 1_445
H12 O3 2.4413 no 2_547
H12 C5 3.5710 no 2_447
H12 C7 3.4949 no 2_547
H12 H5A 2.6763 no 2_447
H12 H5B 2.7068 no 1_545
H12 H9 3.4773 no 2_447
H12 H11 3.5880 no 1_655
H13 S1 2.8667 no 1_565
H13 C2 3.1698 no 1_565
H13 C8 3.1664 no 1_565
H13 C9 3.2899 no 1_565
H13 C11 3.2357 no 1_565
H13 C12 3.3528 no 1_565
H13 C14 3.3206 no 1_565
H13 H11 3.5364 no 1_665
H13 H15A 2.8625 no 1_655
H14 O3 3.2685 no 1_545
H14 O3 2.8133 no 2_447
H14 C5 3.3441 no 2_447
H14 C7 3.1450 no 2_447
H14 H5A 3.2967 no 1_445
H14 H5A 2.9731 no 2_447
H14 H5B 3.4856 no 1_445
H14 H5B 3.4959 no 1_545
H14 H5B 2.9529 no 2_447
H14 H5C 3.4915 no 1_445
H14 H9 3.5772 no 2_447
H15A S1 3.2824 no 1_465
H15A O1 3.4239 no 3_556
H15A C13 2.9580 no 1_455
H15A C18 3.2760 no 1_455
H15A H5C 3.0154 no 1_455
H15A H13 2.8625 no 1_455
H15A H19 3.2919 no 1_455
H15B S1 2.8707 no 3_556
H15B N19 3.5792 no 3_556
H15B C6 3.0487 no 3_556
H15B C10 3.5224 no 3_546
H15B H8 3.2760 no 3_556
H15B H10 2.8042 no 3_546
H15B H19 3.1231 no 1_455
H15C S1 3.1638 no 3_656
H15C O1 2.8618 no 3_556
H15C O2 3.0857 no 3_556
H15C N19 3.5461 no 3_656
H15C C17 3.4810 no 3_556
H15C H8 3.0967 no 3_556
H15C H10 3.4433 no 3_546
H15C H19 2.9259 no 3_656
H19 O1 3.1950 no 1_655
H19 O2 2.2058 no 1_655
H19 C15 3.1005 no 1_655
H19 C17 3.0358 no 1_655
H19 H10 3.2610 no 3_646
H19 H15A 3.2919 no 1_655
H19 H15B 3.1231 no 1_655
H19 H15C 2.9259 no 3_646
loop_
_geom_hbond_atom_site_label_D
_geom_hbond_atom_site_label_H
_geom_hbond_atom_site_label_A
_geom_hbond_site_symmetry_A
_geom_hbond_distance_DA
_geom_hbond_distance_DH
_geom_hbond_distance_HA
_geom_hbond_angle_DHA
_geom_hbond_publ_flag
N19 H19 O2 1_655 3.011(3) 0.880 2.206 151.9 no
loop_
_geom_torsion_atom_site_label_1
_geom_torsion_atom_site_label_2
_geom_torsion_atom_site_label_3
_geom_torsion_atom_site_label_4
_geom_torsion
_geom_torsion_publ_flag
C17 O1 C18 C4 178.25(14) no
C17 O1 C18 C13 0.46(19) no
C18 O1 C17 O2 -178.95(14) no
C18 O1 C17 C10 -0.27(19) no
C15 O2 C17 O1 -175.07(15) no
C15 O2 C17 C10 6.6(3) no
C2 N16 C6 S1 -3.5(3) no
C2 N16 C6 N19 175.82(15) no
C6 N16 C2 C8 -96.2(2) no
C6 N16 C2 C9 83.6(2) no
C2 N16 C7 O3 3.5(3) no
C2 N16 C7 C4 -176.53(15) no
C7 N16 C2 C8 78.0(2) no
C7 N16 C2 C9 -102.1(2) no
C6 N16 C7 O3 178.41(18) no
C6 N16 C7 C4 -1.6(2) no
C7 N16 C6 S1 -178.34(15) no
C7 N16 C6 N19 1.0(2) no
C4 N19 C6 S1 179.48(15) no
C4 N19 C6 N16 0.2(2) no
C6 N19 C4 C5 115.32(18) no
C6 N19 C4 C7 -1.1(2) no
C6 N19 C4 C18 -118.22(18) no
N16 C2 C8 C11 178.29(15) no
N16 C2 C9 C12 -178.17(15) no
C8 C2 C9 C12 1.7(3) no
C9 C2 C8 C11 -1.6(3) no
N19 C4 C7 O3 -178.47(18) no
N19 C4 C7 N16 1.58(19) no
N19 C4 C18 O1 57.5(2) no
N19 C4 C18 C13 -125.5(2) no
C5 C4 C7 O3 63.8(3) no
C5 C4 C7 N16 -116.11(17) no
C5 C4 C18 O1 -176.05(15) no
C5 C4 C18 C13 1.0(3) no
C7 C4 C18 O1 -53.3(2) no
C7 C4 C18 C13 123.8(2) no
C18 C4 C7 O3 -59.9(3) no
C18 C4 C7 N16 120.13(16) no
C2 C8 C11 C14 0.4(3) no
C2 C9 C12 C14 -0.6(3) no
C13 C10 C17 O1 -0.0(2) no
C13 C10 C17 O2 178.3(2) no
C17 C10 C13 C18 0.3(2) no
C8 C11 C14 C12 0.7(3) no
C9 C12 C14 C11 -0.6(3) no
C10 C13 C18 O1 -0.5(2) no
C10 C13 C18 C4 -177.68(18) no
